
---------- Begin Simulation Statistics ----------
sim_seconds                                  0.013353                       # Number of seconds simulated
sim_ticks                                 13353009500                       # Number of ticks simulated
final_tick                                13353009500                       # Number of ticks from beginning of simulation (restored from checkpoints and never reset)
sim_freq                                 1000000000000                       # Frequency of simulated ticks
host_inst_rate                                 142690                       # Simulator instruction rate (inst/s)
host_op_rate                                   142690                       # Simulator op (including micro ops) rate (op/s)
host_tick_rate                               52720139                       # Simulator tick rate (ticks/s)
host_mem_usage                                 678308                       # Number of bytes of host memory used
host_seconds                                   253.28                       # Real time elapsed on the host
sim_insts                                    36140729                       # Number of instructions simulated
sim_ops                                      36140729                       # Number of ops (including micro ops) simulated
system.voltage_domain.voltage                       1                       # Voltage in Volts
system.clk_domain.clock                          1000                       # Clock period in ticks
system.mem_ctrls.pwrStateResidencyTicks::UNDEFINED  13353009500                       # Cumulative time (in ticks) in various power states
system.mem_ctrls.bytes_read::.cpu.inst          50880                       # Number of bytes read from this memory
system.mem_ctrls.bytes_read::.cpu.data        4990336                       # Number of bytes read from this memory
system.mem_ctrls.bytes_read::total            5041216                       # Number of bytes read from this memory
system.mem_ctrls.bytes_inst_read::.cpu.inst        50880                       # Number of instructions bytes read from this memory
system.mem_ctrls.bytes_inst_read::total         50880                       # Number of instructions bytes read from this memory
system.mem_ctrls.bytes_written::.writebacks      2423616                       # Number of bytes written to this memory
system.mem_ctrls.bytes_written::total         2423616                       # Number of bytes written to this memory
system.mem_ctrls.num_reads::.cpu.inst             795                       # Number of read requests responded to by this memory
system.mem_ctrls.num_reads::.cpu.data           77974                       # Number of read requests responded to by this memory
system.mem_ctrls.num_reads::total               78769                       # Number of read requests responded to by this memory
system.mem_ctrls.num_writes::.writebacks        37869                       # Number of write requests responded to by this memory
system.mem_ctrls.num_writes::total              37869                       # Number of write requests responded to by this memory
system.mem_ctrls.bw_read::.cpu.inst           3810377                       # Total read bandwidth from this memory (bytes/s)
system.mem_ctrls.bw_read::.cpu.data         373723691                       # Total read bandwidth from this memory (bytes/s)
system.mem_ctrls.bw_read::total             377534068                       # Total read bandwidth from this memory (bytes/s)
system.mem_ctrls.bw_inst_read::.cpu.inst      3810377                       # Instruction read bandwidth from this memory (bytes/s)
system.mem_ctrls.bw_inst_read::total          3810377                       # Instruction read bandwidth from this memory (bytes/s)
system.mem_ctrls.bw_write::.writebacks      181503353                       # Write bandwidth from this memory (bytes/s)
system.mem_ctrls.bw_write::total            181503353                       # Write bandwidth from this memory (bytes/s)
system.mem_ctrls.bw_total::.writebacks      181503353                       # Total bandwidth to/from this memory (bytes/s)
system.mem_ctrls.bw_total::.cpu.inst          3810377                       # Total bandwidth to/from this memory (bytes/s)
system.mem_ctrls.bw_total::.cpu.data        373723691                       # Total bandwidth to/from this memory (bytes/s)
system.mem_ctrls.bw_total::total            559037421                       # Total bandwidth to/from this memory (bytes/s)
system.mem_ctrls.avgPriority_.writebacks::samples     37869.00                       # Average QoS priority value for accepted requests
system.mem_ctrls.avgPriority_.cpu.inst::samples       795.00                       # Average QoS priority value for accepted requests
system.mem_ctrls.avgPriority_.cpu.data::samples     77941.00                       # Average QoS priority value for accepted requests
system.mem_ctrls.priorityMinLatency      0.000000018750                       # per QoS priority minimum request to response latency (s)
system.mem_ctrls.priorityMaxLatency      0.011519821750                       # per QoS priority maximum request to response latency (s)
system.mem_ctrls.numReadWriteTurnArounds         2354                       # Number of turnarounds from READ to WRITE
system.mem_ctrls.numWriteReadTurnArounds         2354                       # Number of turnarounds from WRITE to READ
system.mem_ctrls.numStayReadState              182387                       # Number of times bus staying in READ state
system.mem_ctrls.numStayWriteState              35605                       # Number of times bus staying in WRITE state
system.mem_ctrls.readReqs                       78770                       # Number of read requests accepted
system.mem_ctrls.writeReqs                      37869                       # Number of write requests accepted
system.mem_ctrls.readBursts                     78770                       # Number of DRAM read bursts, including those serviced by the write queue
system.mem_ctrls.writeBursts                    37869                       # Number of DRAM write bursts, including those merged in the write queue
system.mem_ctrls.bytesReadDRAM                5039104                       # Total number of bytes read from DRAM
system.mem_ctrls.bytesReadWrQ                    2176                       # Total number of bytes read from write queue
system.mem_ctrls.bytesWritten                 2422144                       # Total number of bytes written to DRAM
system.mem_ctrls.bytesReadSys                 5041280                       # Total read bytes from the system interface side
system.mem_ctrls.bytesWrittenSys              2423616                       # Total written bytes from the system interface side
system.mem_ctrls.servicedByWrQ                     34                       # Number of DRAM read bursts serviced by the write queue
system.mem_ctrls.mergedWrBursts                     0                       # Number of DRAM write bursts merged with an existing one
system.mem_ctrls.neitherReadNorWriteReqs            0                       # Number of requests that are neither read nor write
system.mem_ctrls.perBankRdBursts::0              5352                       # Per bank write bursts
system.mem_ctrls.perBankRdBursts::1              5244                       # Per bank write bursts
system.mem_ctrls.perBankRdBursts::2              5364                       # Per bank write bursts
system.mem_ctrls.perBankRdBursts::3              5533                       # Per bank write bursts
system.mem_ctrls.perBankRdBursts::4              5371                       # Per bank write bursts
system.mem_ctrls.perBankRdBursts::5              5269                       # Per bank write bursts
system.mem_ctrls.perBankRdBursts::6              5249                       # Per bank write bursts
system.mem_ctrls.perBankRdBursts::7              4886                       # Per bank write bursts
system.mem_ctrls.perBankRdBursts::8              3907                       # Per bank write bursts
system.mem_ctrls.perBankRdBursts::9              3701                       # Per bank write bursts
system.mem_ctrls.perBankRdBursts::10             3656                       # Per bank write bursts
system.mem_ctrls.perBankRdBursts::11             4155                       # Per bank write bursts
system.mem_ctrls.perBankRdBursts::12             5259                       # Per bank write bursts
system.mem_ctrls.perBankRdBursts::13             5301                       # Per bank write bursts
system.mem_ctrls.perBankRdBursts::14             5256                       # Per bank write bursts
system.mem_ctrls.perBankRdBursts::15             5233                       # Per bank write bursts
system.mem_ctrls.perBankWrBursts::0              2691                       # Per bank write bursts
system.mem_ctrls.perBankWrBursts::1              2674                       # Per bank write bursts
system.mem_ctrls.perBankWrBursts::2              2704                       # Per bank write bursts
system.mem_ctrls.perBankWrBursts::3              2851                       # Per bank write bursts
system.mem_ctrls.perBankWrBursts::4              2740                       # Per bank write bursts
system.mem_ctrls.perBankWrBursts::5              2603                       # Per bank write bursts
system.mem_ctrls.perBankWrBursts::6              2642                       # Per bank write bursts
system.mem_ctrls.perBankWrBursts::7              2295                       # Per bank write bursts
system.mem_ctrls.perBankWrBursts::8              1328                       # Per bank write bursts
system.mem_ctrls.perBankWrBursts::9              1329                       # Per bank write bursts
system.mem_ctrls.perBankWrBursts::10             1419                       # Per bank write bursts
system.mem_ctrls.perBankWrBursts::11             1813                       # Per bank write bursts
system.mem_ctrls.perBankWrBursts::12             2689                       # Per bank write bursts
system.mem_ctrls.perBankWrBursts::13             2714                       # Per bank write bursts
system.mem_ctrls.perBankWrBursts::14             2681                       # Per bank write bursts
system.mem_ctrls.perBankWrBursts::15             2673                       # Per bank write bursts
system.mem_ctrls.numRdRetry                         0                       # Number of times read queue was full causing retry
system.mem_ctrls.numWrRetry                         0                       # Number of times write queue was full causing retry
system.mem_ctrls.totGap                   13352980000                       # Total gap between requests
system.mem_ctrls.readPktSize::0                     0                       # Read request sizes (log2)
system.mem_ctrls.readPktSize::1                     0                       # Read request sizes (log2)
system.mem_ctrls.readPktSize::2                     0                       # Read request sizes (log2)
system.mem_ctrls.readPktSize::3                     0                       # Read request sizes (log2)
system.mem_ctrls.readPktSize::4                     0                       # Read request sizes (log2)
system.mem_ctrls.readPktSize::5                     0                       # Read request sizes (log2)
system.mem_ctrls.readPktSize::6                 78770                       # Read request sizes (log2)
system.mem_ctrls.writePktSize::0                    0                       # Write request sizes (log2)
system.mem_ctrls.writePktSize::1                    0                       # Write request sizes (log2)
system.mem_ctrls.writePktSize::2                    0                       # Write request sizes (log2)
system.mem_ctrls.writePktSize::3                    0                       # Write request sizes (log2)
system.mem_ctrls.writePktSize::4                    0                       # Write request sizes (log2)
system.mem_ctrls.writePktSize::5                    0                       # Write request sizes (log2)
system.mem_ctrls.writePktSize::6                37869                       # Write request sizes (log2)
system.mem_ctrls.rdQLenPdf::0                   42982                       # What read queue length does an incoming req see
system.mem_ctrls.rdQLenPdf::1                   20122                       # What read queue length does an incoming req see
system.mem_ctrls.rdQLenPdf::2                   10268                       # What read queue length does an incoming req see
system.mem_ctrls.rdQLenPdf::3                    5359                       # What read queue length does an incoming req see
system.mem_ctrls.rdQLenPdf::4                       5                       # What read queue length does an incoming req see
system.mem_ctrls.rdQLenPdf::5                       0                       # What read queue length does an incoming req see
system.mem_ctrls.rdQLenPdf::6                       0                       # What read queue length does an incoming req see
system.mem_ctrls.rdQLenPdf::7                       0                       # What read queue length does an incoming req see
system.mem_ctrls.rdQLenPdf::8                       0                       # What read queue length does an incoming req see
system.mem_ctrls.rdQLenPdf::9                       0                       # What read queue length does an incoming req see
system.mem_ctrls.rdQLenPdf::10                      0                       # What read queue length does an incoming req see
system.mem_ctrls.rdQLenPdf::11                      0                       # What read queue length does an incoming req see
system.mem_ctrls.rdQLenPdf::12                      0                       # What read queue length does an incoming req see
system.mem_ctrls.rdQLenPdf::13                      0                       # What read queue length does an incoming req see
system.mem_ctrls.rdQLenPdf::14                      0                       # What read queue length does an incoming req see
system.mem_ctrls.rdQLenPdf::15                      0                       # What read queue length does an incoming req see
system.mem_ctrls.rdQLenPdf::16                      0                       # What read queue length does an incoming req see
system.mem_ctrls.rdQLenPdf::17                      0                       # What read queue length does an incoming req see
system.mem_ctrls.rdQLenPdf::18                      0                       # What read queue length does an incoming req see
system.mem_ctrls.rdQLenPdf::19                      0                       # What read queue length does an incoming req see
system.mem_ctrls.rdQLenPdf::20                      0                       # What read queue length does an incoming req see
system.mem_ctrls.rdQLenPdf::21                      0                       # What read queue length does an incoming req see
system.mem_ctrls.rdQLenPdf::22                      0                       # What read queue length does an incoming req see
system.mem_ctrls.rdQLenPdf::23                      0                       # What read queue length does an incoming req see
system.mem_ctrls.rdQLenPdf::24                      0                       # What read queue length does an incoming req see
system.mem_ctrls.rdQLenPdf::25                      0                       # What read queue length does an incoming req see
system.mem_ctrls.rdQLenPdf::26                      0                       # What read queue length does an incoming req see
system.mem_ctrls.rdQLenPdf::27                      0                       # What read queue length does an incoming req see
system.mem_ctrls.rdQLenPdf::28                      0                       # What read queue length does an incoming req see
system.mem_ctrls.rdQLenPdf::29                      0                       # What read queue length does an incoming req see
system.mem_ctrls.rdQLenPdf::30                      0                       # What read queue length does an incoming req see
system.mem_ctrls.rdQLenPdf::31                      0                       # What read queue length does an incoming req see
system.mem_ctrls.wrQLenPdf::0                       1                       # What write queue length does an incoming req see
system.mem_ctrls.wrQLenPdf::1                       1                       # What write queue length does an incoming req see
system.mem_ctrls.wrQLenPdf::2                       1                       # What write queue length does an incoming req see
system.mem_ctrls.wrQLenPdf::3                       1                       # What write queue length does an incoming req see
system.mem_ctrls.wrQLenPdf::4                       1                       # What write queue length does an incoming req see
system.mem_ctrls.wrQLenPdf::5                       1                       # What write queue length does an incoming req see
system.mem_ctrls.wrQLenPdf::6                       1                       # What write queue length does an incoming req see
system.mem_ctrls.wrQLenPdf::7                       1                       # What write queue length does an incoming req see
system.mem_ctrls.wrQLenPdf::8                       1                       # What write queue length does an incoming req see
system.mem_ctrls.wrQLenPdf::9                       1                       # What write queue length does an incoming req see
system.mem_ctrls.wrQLenPdf::10                      1                       # What write queue length does an incoming req see
system.mem_ctrls.wrQLenPdf::11                      1                       # What write queue length does an incoming req see
system.mem_ctrls.wrQLenPdf::12                      1                       # What write queue length does an incoming req see
system.mem_ctrls.wrQLenPdf::13                      1                       # What write queue length does an incoming req see
system.mem_ctrls.wrQLenPdf::14                      1                       # What write queue length does an incoming req see
system.mem_ctrls.wrQLenPdf::15                     58                       # What write queue length does an incoming req see
system.mem_ctrls.wrQLenPdf::16                     65                       # What write queue length does an incoming req see
system.mem_ctrls.wrQLenPdf::17                    326                       # What write queue length does an incoming req see
system.mem_ctrls.wrQLenPdf::18                    777                       # What write queue length does an incoming req see
system.mem_ctrls.wrQLenPdf::19                   1466                       # What write queue length does an incoming req see
system.mem_ctrls.wrQLenPdf::20                   2422                       # What write queue length does an incoming req see
system.mem_ctrls.wrQLenPdf::21                   2468                       # What write queue length does an incoming req see
system.mem_ctrls.wrQLenPdf::22                   2631                       # What write queue length does an incoming req see
system.mem_ctrls.wrQLenPdf::23                   2644                       # What write queue length does an incoming req see
system.mem_ctrls.wrQLenPdf::24                   3214                       # What write queue length does an incoming req see
system.mem_ctrls.wrQLenPdf::25                   2600                       # What write queue length does an incoming req see
system.mem_ctrls.wrQLenPdf::26                   2772                       # What write queue length does an incoming req see
system.mem_ctrls.wrQLenPdf::27                   2587                       # What write queue length does an incoming req see
system.mem_ctrls.wrQLenPdf::28                   2591                       # What write queue length does an incoming req see
system.mem_ctrls.wrQLenPdf::29                   2568                       # What write queue length does an incoming req see
system.mem_ctrls.wrQLenPdf::30                   2686                       # What write queue length does an incoming req see
system.mem_ctrls.wrQLenPdf::31                   2628                       # What write queue length does an incoming req see
system.mem_ctrls.wrQLenPdf::32                   3163                       # What write queue length does an incoming req see
system.mem_ctrls.wrQLenPdf::33                    174                       # What write queue length does an incoming req see
system.mem_ctrls.wrQLenPdf::34                     10                       # What write queue length does an incoming req see
system.mem_ctrls.wrQLenPdf::35                      4                       # What write queue length does an incoming req see
system.mem_ctrls.wrQLenPdf::36                      0                       # What write queue length does an incoming req see
system.mem_ctrls.wrQLenPdf::37                      0                       # What write queue length does an incoming req see
system.mem_ctrls.wrQLenPdf::38                      0                       # What write queue length does an incoming req see
system.mem_ctrls.wrQLenPdf::39                      0                       # What write queue length does an incoming req see
system.mem_ctrls.wrQLenPdf::40                      0                       # What write queue length does an incoming req see
system.mem_ctrls.wrQLenPdf::41                      0                       # What write queue length does an incoming req see
system.mem_ctrls.wrQLenPdf::42                      0                       # What write queue length does an incoming req see
system.mem_ctrls.wrQLenPdf::43                      0                       # What write queue length does an incoming req see
system.mem_ctrls.wrQLenPdf::44                      0                       # What write queue length does an incoming req see
system.mem_ctrls.wrQLenPdf::45                      0                       # What write queue length does an incoming req see
system.mem_ctrls.wrQLenPdf::46                      0                       # What write queue length does an incoming req see
system.mem_ctrls.wrQLenPdf::47                      0                       # What write queue length does an incoming req see
system.mem_ctrls.wrQLenPdf::48                      0                       # What write queue length does an incoming req see
system.mem_ctrls.wrQLenPdf::49                      0                       # What write queue length does an incoming req see
system.mem_ctrls.wrQLenPdf::50                      0                       # What write queue length does an incoming req see
system.mem_ctrls.wrQLenPdf::51                      0                       # What write queue length does an incoming req see
system.mem_ctrls.wrQLenPdf::52                      0                       # What write queue length does an incoming req see
system.mem_ctrls.wrQLenPdf::53                      0                       # What write queue length does an incoming req see
system.mem_ctrls.wrQLenPdf::54                      0                       # What write queue length does an incoming req see
system.mem_ctrls.wrQLenPdf::55                      0                       # What write queue length does an incoming req see
system.mem_ctrls.wrQLenPdf::56                      0                       # What write queue length does an incoming req see
system.mem_ctrls.wrQLenPdf::57                      0                       # What write queue length does an incoming req see
system.mem_ctrls.wrQLenPdf::58                      0                       # What write queue length does an incoming req see
system.mem_ctrls.wrQLenPdf::59                      0                       # What write queue length does an incoming req see
system.mem_ctrls.wrQLenPdf::60                      0                       # What write queue length does an incoming req see
system.mem_ctrls.wrQLenPdf::61                      0                       # What write queue length does an incoming req see
system.mem_ctrls.wrQLenPdf::62                      0                       # What write queue length does an incoming req see
system.mem_ctrls.wrQLenPdf::63                      0                       # What write queue length does an incoming req see
system.mem_ctrls.bytesPerActivate::samples        12099                       # Bytes accessed per row activation
system.mem_ctrls.bytesPerActivate::mean    616.503182                       # Bytes accessed per row activation
system.mem_ctrls.bytesPerActivate::gmean   404.665478                       # Bytes accessed per row activation
system.mem_ctrls.bytesPerActivate::stdev   403.995068                       # Bytes accessed per row activation
system.mem_ctrls.bytesPerActivate::0-127         2390     19.75%     19.75% # Bytes accessed per row activation
system.mem_ctrls.bytesPerActivate::128-255         1132      9.36%     29.11% # Bytes accessed per row activation
system.mem_ctrls.bytesPerActivate::256-383          815      6.74%     35.85% # Bytes accessed per row activation
system.mem_ctrls.bytesPerActivate::384-511          547      4.52%     40.37% # Bytes accessed per row activation
system.mem_ctrls.bytesPerActivate::512-639          792      6.55%     46.91% # Bytes accessed per row activation
system.mem_ctrls.bytesPerActivate::640-767          513      4.24%     51.15% # Bytes accessed per row activation
system.mem_ctrls.bytesPerActivate::768-895          389      3.22%     54.37% # Bytes accessed per row activation
system.mem_ctrls.bytesPerActivate::896-1023          780      6.45%     60.81% # Bytes accessed per row activation
system.mem_ctrls.bytesPerActivate::1024-1151         4741     39.19%    100.00% # Bytes accessed per row activation
system.mem_ctrls.bytesPerActivate::total        12099                       # Bytes accessed per row activation
system.mem_ctrls.rdPerTurnAround::samples         2354                       # Reads before turning the bus around for writes
system.mem_ctrls.rdPerTurnAround::mean      33.443925                       # Reads before turning the bus around for writes
system.mem_ctrls.rdPerTurnAround::gmean     18.556130                       # Reads before turning the bus around for writes
system.mem_ctrls.rdPerTurnAround::stdev    265.346379                       # Reads before turning the bus around for writes
system.mem_ctrls.rdPerTurnAround::0-511          2340     99.41%     99.41% # Reads before turning the bus around for writes
system.mem_ctrls.rdPerTurnAround::512-1023            7      0.30%     99.70% # Reads before turning the bus around for writes
system.mem_ctrls.rdPerTurnAround::1024-1535            2      0.08%     99.79% # Reads before turning the bus around for writes
system.mem_ctrls.rdPerTurnAround::2048-2559            1      0.04%     99.83% # Reads before turning the bus around for writes
system.mem_ctrls.rdPerTurnAround::3072-3583            2      0.08%     99.92% # Reads before turning the bus around for writes
system.mem_ctrls.rdPerTurnAround::4096-4607            1      0.04%     99.96% # Reads before turning the bus around for writes
system.mem_ctrls.rdPerTurnAround::10240-10751            1      0.04%    100.00% # Reads before turning the bus around for writes
system.mem_ctrls.rdPerTurnAround::total          2354                       # Reads before turning the bus around for writes
system.mem_ctrls.wrPerTurnAround::samples         2354                       # Writes before turning the bus around for reads
system.mem_ctrls.wrPerTurnAround::mean      16.077315                       # Writes before turning the bus around for reads
system.mem_ctrls.wrPerTurnAround::gmean     16.072752                       # Writes before turning the bus around for reads
system.mem_ctrls.wrPerTurnAround::stdev      0.399707                       # Writes before turning the bus around for reads
system.mem_ctrls.wrPerTurnAround::16             2262     96.09%     96.09% # Writes before turning the bus around for reads
system.mem_ctrls.wrPerTurnAround::17               13      0.55%     96.64% # Writes before turning the bus around for reads
system.mem_ctrls.wrPerTurnAround::18               71      3.02%     99.66% # Writes before turning the bus around for reads
system.mem_ctrls.wrPerTurnAround::19                5      0.21%     99.87% # Writes before turning the bus around for reads
system.mem_ctrls.wrPerTurnAround::20                3      0.13%    100.00% # Writes before turning the bus around for reads
system.mem_ctrls.wrPerTurnAround::total          2354                       # Writes before turning the bus around for reads
system.mem_ctrls.masterReadBytes::.cpu.inst        50880                       # Per-master bytes read from memory
system.mem_ctrls.masterReadBytes::.cpu.data      4988224                       # Per-master bytes read from memory
system.mem_ctrls.masterWriteBytes::.writebacks      2422144                       # Per-master bytes write to memory
system.mem_ctrls.masterReadRate::.cpu.inst 3810376.979062285274                       # Per-master bytes read from memory rate (Bytes/sec)
system.mem_ctrls.masterReadRate::.cpu.data 373565524.685652315617                       # Per-master bytes read from memory rate (Bytes/sec)
system.mem_ctrls.masterWriteRate::.writebacks 181393115.911435544491                       # Per-master bytes write to memory rate (Bytes/sec)
system.mem_ctrls.masterReadAccesses::.cpu.inst          795                       # Per-master read serviced memory accesses
system.mem_ctrls.masterReadAccesses::.cpu.data        77975                       # Per-master read serviced memory accesses
system.mem_ctrls.masterWriteAccesses::.writebacks        37869                       # Per-master write serviced memory accesses
system.mem_ctrls.masterReadTotalLat::.cpu.inst     26176000                       # Per-master read total memory access latency
system.mem_ctrls.masterReadTotalLat::.cpu.data   3526657000                       # Per-master read total memory access latency
system.mem_ctrls.masterWriteTotalLat::.writebacks 326535609500                       # Per-master write total memory access latency
system.mem_ctrls.masterReadAvgLat::.cpu.inst     32925.79                       # Per-master read average memory access latency
system.mem_ctrls.masterReadAvgLat::.cpu.data     45228.05                       # Per-master read average memory access latency
system.mem_ctrls.masterWriteAvgLat::.writebacks   8622768.21                       # Per-master write average memory access latency
system.mem_ctrls.totQLat                   2076533000                       # Total ticks spent queuing
system.mem_ctrls.totMemAccLat              3552833000                       # Total ticks spent from burst creation until serviced by the DRAM
system.mem_ctrls.totBusLat                  393680000                       # Total ticks spent in databus transfers
system.mem_ctrls.avgQLat                     26373.36                       # Average queueing delay per DRAM burst
system.mem_ctrls.avgBusLat                    5000.00                       # Average bus latency per DRAM burst
system.mem_ctrls.avgMemAccLat                45123.36                       # Average memory access latency per DRAM burst
system.mem_ctrls.avgRdBW                       377.38                       # Average DRAM read bandwidth in MiByte/s
system.mem_ctrls.avgWrBW                       181.39                       # Average achieved write bandwidth in MiByte/s
system.mem_ctrls.avgRdBWSys                    377.54                       # Average system read bandwidth in MiByte/s
system.mem_ctrls.avgWrBWSys                    181.50                       # Average system write bandwidth in MiByte/s
system.mem_ctrls.peakBW                      12800.00                       # Theoretical peak bandwidth in MiByte/s
system.mem_ctrls.busUtil                         4.37                       # Data bus utilization in percentage
system.mem_ctrls.busUtilRead                     2.95                       # Data bus utilization in percentage for reads
system.mem_ctrls.busUtilWrite                    1.42                       # Data bus utilization in percentage for writes
system.mem_ctrls.avgRdQLen                       1.24                       # Average read queue length when enqueuing
system.mem_ctrls.avgWrQLen                      25.29                       # Average write queue length when enqueuing
system.mem_ctrls.readRowHits                    70429                       # Number of row buffer hits during reads
system.mem_ctrls.writeRowHits                   34041                       # Number of row buffer hits during writes
system.mem_ctrls.readRowHitRate                 89.45                       # Row buffer hit rate for reads
system.mem_ctrls.writeRowHitRate                89.89                       # Row buffer hit rate for writes
system.mem_ctrls.avgGap                     114481.26                       # Average gap between requests
system.mem_ctrls.pageHitRate                    89.59                       # Row buffer hit rate, read and write combined
system.mem_ctrls_0.actEnergy                 46145820                       # Energy for activate commands per rank (pJ)
system.mem_ctrls_0.preEnergy                 24500520                       # Energy for precharge commands per rank (pJ)
system.mem_ctrls_0.readEnergy               301786380                       # Energy for read commands per rank (pJ)
system.mem_ctrls_0.writeEnergy              110664000                       # Energy for write commands per rank (pJ)
system.mem_ctrls_0.refreshEnergy         444384720.000000                       # Energy for refresh commands per rank (pJ)
system.mem_ctrls_0.actBackEnergy            585929220                       # Energy for active background per rank (pJ)
system.mem_ctrls_0.preBackEnergy             27617280                       # Energy for precharge background per rank (pJ)
system.mem_ctrls_0.actPowerDownEnergy      1484104440                       # Energy for active power-down per rank (pJ)
system.mem_ctrls_0.prePowerDownEnergy       401930400                       # Energy for precharge power-down per rank (pJ)
system.mem_ctrls_0.selfRefreshEnergy       1897569780                       # Energy for self refresh per rank (pJ)
system.mem_ctrls_0.totalEnergy             5325294960                       # Total energy per rank (pJ)
system.mem_ctrls_0.averagePower            398.808595                       # Core power per rank (mW)
system.mem_ctrls_0.totalIdleTime          11994831000                       # Total Idle time Per DRAM Rank
system.mem_ctrls_0.memoryStateTime::IDLE     32931750                       # Time in different power states
system.mem_ctrls_0.memoryStateTime::REF     187980000                       # Time in different power states
system.mem_ctrls_0.memoryStateTime::SREF   7693388750                       # Time in different power states
system.mem_ctrls_0.memoryStateTime::PRE_PDN   1046690250                       # Time in different power states
system.mem_ctrls_0.memoryStateTime::ACT    1137266750                       # Time in different power states
system.mem_ctrls_0.memoryStateTime::ACT_PDN   3254752000                       # Time in different power states
system.mem_ctrls_1.actEnergy                 40326720                       # Energy for activate commands per rank (pJ)
system.mem_ctrls_1.preEnergy                 21415185                       # Energy for precharge commands per rank (pJ)
system.mem_ctrls_1.readEnergy               260381520                       # Energy for read commands per rank (pJ)
system.mem_ctrls_1.writeEnergy               86892120                       # Energy for write commands per rank (pJ)
system.mem_ctrls_1.refreshEnergy         433321200.000000                       # Energy for refresh commands per rank (pJ)
system.mem_ctrls_1.actBackEnergy            528240660                       # Energy for active background per rank (pJ)
system.mem_ctrls_1.preBackEnergy             27769440                       # Energy for precharge background per rank (pJ)
system.mem_ctrls_1.actPowerDownEnergy      1486891170                       # Energy for active power-down per rank (pJ)
system.mem_ctrls_1.prePowerDownEnergy       395213760                       # Energy for precharge power-down per rank (pJ)
system.mem_ctrls_1.selfRefreshEnergy       1928911560                       # Energy for self refresh per rank (pJ)
system.mem_ctrls_1.totalEnergy             5209363335                       # Total energy per rank (pJ)
system.mem_ctrls_1.averagePower            390.126536                       # Core power per rank (mW)
system.mem_ctrls_1.totalIdleTime          12122392250                       # Total Idle time Per DRAM Rank
system.mem_ctrls_1.memoryStateTime::IDLE     33513000                       # Time in different power states
system.mem_ctrls_1.memoryStateTime::REF     183300000                       # Time in different power states
system.mem_ctrls_1.memoryStateTime::SREF   7832345250                       # Time in different power states
system.mem_ctrls_1.memoryStateTime::PRE_PDN   1029209000                       # Time in different power states
system.mem_ctrls_1.memoryStateTime::ACT    1013804250                       # Time in different power states
system.mem_ctrls_1.memoryStateTime::ACT_PDN   3260838000                       # Time in different power states
system.pwrStateResidencyTicks::UNDEFINED  13353009500                       # Cumulative time (in ticks) in various power states
system.cpu.branchPred.lookups                 7996536                       # Number of BP lookups
system.cpu.branchPred.condPredicted           5255195                       # Number of conditional branches predicted
system.cpu.branchPred.condIncorrect            538350                       # Number of conditional branches incorrect
system.cpu.branchPred.BTBLookups              6870441                       # Number of BTB lookups
system.cpu.branchPred.BTBHits                 4748672                       # Number of BTB hits
system.cpu.branchPred.BTBCorrect                    0                       # Number of correct BTB predictions (this stat may not work properly.
system.cpu.branchPred.BTBHitPct             69.117426                       # BTB Hit Percentage
system.cpu.branchPred.usedRAS                 1020420                       # Number of times the RAS was used to get a target.
system.cpu.branchPred.RASInCorrect                 49                       # Number of incorrect RAS predictions.
system.cpu.branchPred.indirectLookups          356188                       # Number of indirect predictor lookups.
system.cpu.branchPred.indirectHits             315784                       # Number of indirect target hits.
system.cpu.branchPred.indirectMisses            40404                       # Number of indirect misses.
system.cpu.branchPredindirectMispredicted          229                       # Number of mispredicted indirect branches.
system.cpu_voltage_domain.voltage                   1                       # Voltage in Volts
system.cpu_clk_domain.clock                       500                       # Clock period in ticks
system.cpu.dtb.fetch_hits                           0                       # ITB hits
system.cpu.dtb.fetch_misses                         0                       # ITB misses
system.cpu.dtb.fetch_acv                            0                       # ITB acv
system.cpu.dtb.fetch_accesses                       0                       # ITB accesses
system.cpu.dtb.read_hits                      9513075                       # DTB read hits
system.cpu.dtb.read_misses                      13749                       # DTB read misses
system.cpu.dtb.read_acv                             0                       # DTB read access violations
system.cpu.dtb.read_accesses                  9526824                       # DTB read accesses
system.cpu.dtb.write_hits                     6752629                       # DTB write hits
system.cpu.dtb.write_misses                     41246                       # DTB write misses
system.cpu.dtb.write_acv                            0                       # DTB write access violations
system.cpu.dtb.write_accesses                 6793875                       # DTB write accesses
system.cpu.dtb.data_hits                     16265704                       # DTB hits
system.cpu.dtb.data_misses                      54995                       # DTB misses
system.cpu.dtb.data_acv                             0                       # DTB access violations
system.cpu.dtb.data_accesses                 16320699                       # DTB accesses
system.cpu.itb.fetch_hits                     8627331                       # ITB hits
system.cpu.itb.fetch_misses                       313                       # ITB misses
system.cpu.itb.fetch_acv                            0                       # ITB acv
system.cpu.itb.fetch_accesses                 8627644                       # ITB accesses
system.cpu.itb.read_hits                            0                       # DTB read hits
system.cpu.itb.read_misses                          0                       # DTB read misses
system.cpu.itb.read_acv                             0                       # DTB read access violations
system.cpu.itb.read_accesses                        0                       # DTB read accesses
system.cpu.itb.write_hits                           0                       # DTB write hits
system.cpu.itb.write_misses                         0                       # DTB write misses
system.cpu.itb.write_acv                            0                       # DTB write access violations
system.cpu.itb.write_accesses                       0                       # DTB write accesses
system.cpu.itb.data_hits                            0                       # DTB hits
system.cpu.itb.data_misses                          0                       # DTB misses
system.cpu.itb.data_acv                             0                       # DTB access violations
system.cpu.itb.data_accesses                        0                       # DTB accesses
system.cpu.workload.numSyscalls                 10032                       # Number of system calls
system.cpu.pwrStateResidencyTicks::ON     13353009500                       # Cumulative time (in ticks) in various power states
system.cpu.numCycles                         26706020                       # number of cpu cycles simulated
system.cpu.numWorkItemsStarted                      0                       # number of work items this cpu started
system.cpu.numWorkItemsCompleted                    0                       # number of work items this cpu completed
system.cpu.fetch.icacheStallCycles            8799144                       # Number of cycles fetch is stalled on an Icache miss
system.cpu.fetch.Insts                       56665700                       # Number of instructions fetch has processed
system.cpu.fetch.Branches                     7996536                       # Number of branches that fetch encountered
system.cpu.fetch.predictedBranches            6084876                       # Number of branches that fetch has predicted taken
system.cpu.fetch.Cycles                      17288999                       # Number of cycles fetch has run and was not squashing or blocked
system.cpu.fetch.SquashCycles                 1083674                       # Number of cycles fetch has spent squashing
system.cpu.fetch.MiscStallCycles                  275                       # Number of cycles fetch has spent waiting on interrupts, or bad addresses, or out of MSHRs
system.cpu.fetch.PendingTrapStallCycles          1984                       # Number of stall cycles due to pending traps
system.cpu.fetch.CacheLines                   8627331                       # Number of cache lines fetched
system.cpu.fetch.IcacheSquashes                352302                       # Number of outstanding Icache misses that were squashed
system.cpu.fetch.rateDist::samples           26632239                       # Number of instructions fetched each cycle (Total)
system.cpu.fetch.rateDist::mean              2.127711                       # Number of instructions fetched each cycle (Total)
system.cpu.fetch.rateDist::stdev             3.028091                       # Number of instructions fetched each cycle (Total)
system.cpu.fetch.rateDist::underflows               0      0.00%      0.00% # Number of instructions fetched each cycle (Total)
system.cpu.fetch.rateDist::0                 15543412     58.36%     58.36% # Number of instructions fetched each cycle (Total)
system.cpu.fetch.rateDist::1                  1353333      5.08%     63.44% # Number of instructions fetched each cycle (Total)
system.cpu.fetch.rateDist::2                  1095052      4.11%     67.56% # Number of instructions fetched each cycle (Total)
system.cpu.fetch.rateDist::3                  1279752      4.81%     72.36% # Number of instructions fetched each cycle (Total)
system.cpu.fetch.rateDist::4                  1089361      4.09%     76.45% # Number of instructions fetched each cycle (Total)
system.cpu.fetch.rateDist::5                   932182      3.50%     79.95% # Number of instructions fetched each cycle (Total)
system.cpu.fetch.rateDist::6                   902446      3.39%     83.34% # Number of instructions fetched each cycle (Total)
system.cpu.fetch.rateDist::7                   643631      2.42%     85.76% # Number of instructions fetched each cycle (Total)
system.cpu.fetch.rateDist::8                  3793070     14.24%    100.00% # Number of instructions fetched each cycle (Total)
system.cpu.fetch.rateDist::overflows                0      0.00%    100.00% # Number of instructions fetched each cycle (Total)
system.cpu.fetch.rateDist::min_value                0                       # Number of instructions fetched each cycle (Total)
system.cpu.fetch.rateDist::max_value                8                       # Number of instructions fetched each cycle (Total)
system.cpu.fetch.rateDist::total             26632239                       # Number of instructions fetched each cycle (Total)
system.cpu.fetch.branchRate                  0.299428                       # Number of branch fetches per cycle
system.cpu.fetch.rate                        2.121832                       # Number of inst fetches per cycle
system.cpu.decode.IdleCycles                  7678254                       # Number of cycles decode is idle
system.cpu.decode.BlockedCycles               8403977                       # Number of cycles decode is blocked
system.cpu.decode.RunCycles                   9424686                       # Number of cycles decode is running
system.cpu.decode.UnblockCycles                583901                       # Number of cycles decode is unblocking
system.cpu.decode.SquashCycles                 541421                       # Number of cycles decode is squashing
system.cpu.decode.BranchResolved              4423803                       # Number of times decode resolved a branch
system.cpu.decode.BranchMispred                   420                       # Number of times decode detected a branch misprediction
system.cpu.decode.DecodedInsts               54362681                       # Number of instructions handled by decode
system.cpu.decode.SquashedInsts                  1351                       # Number of squashed instructions handled by decode
system.cpu.rename.SquashCycles                 541421                       # Number of cycles rename is squashing
system.cpu.rename.IdleCycles                  8030666                       # Number of cycles rename is idle
system.cpu.rename.BlockCycles                 2033953                       # Number of cycles rename is blocking
system.cpu.rename.serializeStallCycles        3200111                       # count of cycles rename stalled for serializing inst
system.cpu.rename.RunCycles                   9628663                       # Number of cycles rename is running
system.cpu.rename.UnblockCycles               3197425                       # Number of cycles rename is unblocking
system.cpu.rename.RenamedInsts               53287588                       # Number of instructions processed by rename
system.cpu.rename.ROBFullEvents                 20276                       # Number of times rename has blocked due to ROB full
system.cpu.rename.IQFullEvents                  61427                       # Number of times rename has blocked due to IQ full
system.cpu.rename.LQFullEvents                 103419                       # Number of times rename has blocked due to LQ full
system.cpu.rename.SQFullEvents                2842220                       # Number of times rename has blocked due to SQ full
system.cpu.rename.RenamedOperands            32472050                       # Number of destination operands rename has renamed
system.cpu.rename.RenameLookups              64486302                       # Number of register rename lookups that rename has made
system.cpu.rename.int_rename_lookups         64386173                       # Number of integer rename lookups
system.cpu.rename.fp_rename_lookups             60094                       # Number of floating rename lookups
system.cpu.rename.CommittedMaps              24555605                       # Number of HB maps that are committed
system.cpu.rename.UndoneMaps                  7916445                       # Number of HB maps that are undone due to squashing
system.cpu.rename.serializingInsts             131419                       # count of serializing insts renamed
system.cpu.rename.tempSerializingInsts          70163                       # count of temporary serializing insts renamed
system.cpu.rename.skidInsts                   2528528                       # count of insts added to the skid buffer
system.cpu.memDep0.insertedLoads              9442423                       # Number of loads inserted to the mem dependence unit.
system.cpu.memDep0.insertedStores             7289844                       # Number of stores inserted to the mem dependence unit.
system.cpu.memDep0.conflictingLoads            329480                       # Number of conflicting loads.
system.cpu.memDep0.conflictingStores           476691                       # Number of conflicting stores.
system.cpu.iq.iqInstsAdded                   43323222                       # Number of instructions added to the IQ (excludes non-spec)
system.cpu.iq.iqNonSpecInstsAdded              110254                       # Number of non-speculative instructions added to the IQ
system.cpu.iq.iqInstsIssued                  42276127                       # Number of instructions issued
system.cpu.iq.iqSquashedInstsIssued             21408                       # Number of squashed instructions issued
system.cpu.iq.iqSquashedInstsExamined         7292746                       # Number of squashed instructions iterated over during squash; mainly for profiling
system.cpu.iq.iqSquashedOperandsExamined      3490789                       # Number of squashed operands that are examined and possibly removed from graph
system.cpu.iq.iqSquashedNonSpecRemoved          20157                       # Number of squashed non-spec instructions that were removed
system.cpu.iq.issued_per_cycle::samples      26632239                       # Number of insts issued each cycle
system.cpu.iq.issued_per_cycle::mean         1.587404                       # Number of insts issued each cycle
system.cpu.iq.issued_per_cycle::stdev        1.959868                       # Number of insts issued each cycle
system.cpu.iq.issued_per_cycle::underflows            0      0.00%      0.00% # Number of insts issued each cycle
system.cpu.iq.issued_per_cycle::0            11966549     44.93%     44.93% # Number of insts issued each cycle
system.cpu.iq.issued_per_cycle::1             4418543     16.59%     61.52% # Number of insts issued each cycle
system.cpu.iq.issued_per_cycle::2             2935371     11.02%     72.55% # Number of insts issued each cycle
system.cpu.iq.issued_per_cycle::3             2431955      9.13%     81.68% # Number of insts issued each cycle
system.cpu.iq.issued_per_cycle::4             2027071      7.61%     89.29% # Number of insts issued each cycle
system.cpu.iq.issued_per_cycle::5             1434789      5.39%     94.68% # Number of insts issued each cycle
system.cpu.iq.issued_per_cycle::6              664994      2.50%     97.17% # Number of insts issued each cycle
system.cpu.iq.issued_per_cycle::7              604952      2.27%     99.44% # Number of insts issued each cycle
system.cpu.iq.issued_per_cycle::8              148015      0.56%    100.00% # Number of insts issued each cycle
system.cpu.iq.issued_per_cycle::overflows            0      0.00%    100.00% # Number of insts issued each cycle
system.cpu.iq.issued_per_cycle::min_value            0                       # Number of insts issued each cycle
system.cpu.iq.issued_per_cycle::max_value            8                       # Number of insts issued each cycle
system.cpu.iq.issued_per_cycle::total        26632239                       # Number of insts issued each cycle
system.cpu.iq.fu_full::No_OpClass                   0      0.00%      0.00% # attempts to use FU when none available
system.cpu.iq.fu_full::IntAlu                   13650      1.41%      1.41% # attempts to use FU when none available
system.cpu.iq.fu_full::IntMult                      0      0.00%      1.41% # attempts to use FU when none available
system.cpu.iq.fu_full::IntDiv                       0      0.00%      1.41% # attempts to use FU when none available
system.cpu.iq.fu_full::FloatAdd                     0      0.00%      1.41% # attempts to use FU when none available
system.cpu.iq.fu_full::FloatCmp                     0      0.00%      1.41% # attempts to use FU when none available
system.cpu.iq.fu_full::FloatCvt                     0      0.00%      1.41% # attempts to use FU when none available
system.cpu.iq.fu_full::FloatMult                    0      0.00%      1.41% # attempts to use FU when none available
system.cpu.iq.fu_full::FloatMultAcc                 0      0.00%      1.41% # attempts to use FU when none available
system.cpu.iq.fu_full::FloatDiv                     0      0.00%      1.41% # attempts to use FU when none available
system.cpu.iq.fu_full::FloatMisc                    0      0.00%      1.41% # attempts to use FU when none available
system.cpu.iq.fu_full::FloatSqrt                    0      0.00%      1.41% # attempts to use FU when none available
system.cpu.iq.fu_full::SimdAdd                      0      0.00%      1.41% # attempts to use FU when none available
system.cpu.iq.fu_full::SimdAddAcc                   0      0.00%      1.41% # attempts to use FU when none available
system.cpu.iq.fu_full::SimdAlu                      0      0.00%      1.41% # attempts to use FU when none available
system.cpu.iq.fu_full::SimdCmp                      0      0.00%      1.41% # attempts to use FU when none available
system.cpu.iq.fu_full::SimdCvt                      0      0.00%      1.41% # attempts to use FU when none available
system.cpu.iq.fu_full::SimdMisc                     0      0.00%      1.41% # attempts to use FU when none available
system.cpu.iq.fu_full::SimdMult                     0      0.00%      1.41% # attempts to use FU when none available
system.cpu.iq.fu_full::SimdMultAcc                  0      0.00%      1.41% # attempts to use FU when none available
system.cpu.iq.fu_full::SimdShift                    0      0.00%      1.41% # attempts to use FU when none available
system.cpu.iq.fu_full::SimdShiftAcc                 0      0.00%      1.41% # attempts to use FU when none available
system.cpu.iq.fu_full::SimdSqrt                     0      0.00%      1.41% # attempts to use FU when none available
system.cpu.iq.fu_full::SimdFloatAdd                 0      0.00%      1.41% # attempts to use FU when none available
system.cpu.iq.fu_full::SimdFloatAlu                 0      0.00%      1.41% # attempts to use FU when none available
system.cpu.iq.fu_full::SimdFloatCmp                 0      0.00%      1.41% # attempts to use FU when none available
system.cpu.iq.fu_full::SimdFloatCvt                 0      0.00%      1.41% # attempts to use FU when none available
system.cpu.iq.fu_full::SimdFloatDiv                 0      0.00%      1.41% # attempts to use FU when none available
system.cpu.iq.fu_full::SimdFloatMisc                0      0.00%      1.41% # attempts to use FU when none available
system.cpu.iq.fu_full::SimdFloatMult                0      0.00%      1.41% # attempts to use FU when none available
system.cpu.iq.fu_full::SimdFloatMultAcc             0      0.00%      1.41% # attempts to use FU when none available
system.cpu.iq.fu_full::SimdFloatSqrt                0      0.00%      1.41% # attempts to use FU when none available
system.cpu.iq.fu_full::SimdAes                      0      0.00%      1.41% # attempts to use FU when none available
system.cpu.iq.fu_full::SimdAesMix                   0      0.00%      1.41% # attempts to use FU when none available
system.cpu.iq.fu_full::SimdSha1Hash                 0      0.00%      1.41% # attempts to use FU when none available
system.cpu.iq.fu_full::SimdSha1Hash2                0      0.00%      1.41% # attempts to use FU when none available
system.cpu.iq.fu_full::SimdSha256Hash               0      0.00%      1.41% # attempts to use FU when none available
system.cpu.iq.fu_full::SimdSha256Hash2              0      0.00%      1.41% # attempts to use FU when none available
system.cpu.iq.fu_full::SimdShaSigma2                0      0.00%      1.41% # attempts to use FU when none available
system.cpu.iq.fu_full::SimdShaSigma3                0      0.00%      1.41% # attempts to use FU when none available
system.cpu.iq.fu_full::MemRead                 672964     69.28%     70.69% # attempts to use FU when none available
system.cpu.iq.fu_full::MemWrite                274734     28.28%     98.97% # attempts to use FU when none available
system.cpu.iq.fu_full::FloatMemRead                 0      0.00%     98.97% # attempts to use FU when none available
system.cpu.iq.fu_full::FloatMemWrite            10010      1.03%    100.00% # attempts to use FU when none available
system.cpu.iq.fu_full::IprAccess                    0      0.00%    100.00% # attempts to use FU when none available
system.cpu.iq.fu_full::InstPrefetch                 0      0.00%    100.00% # attempts to use FU when none available
system.cpu.iq.FU_type_0::No_OpClass               312      0.00%      0.00% # Type of FU issued
system.cpu.iq.FU_type_0::IntAlu              25545724     60.43%     60.43% # Type of FU issued
system.cpu.iq.FU_type_0::IntMult                24614      0.06%     60.48% # Type of FU issued
system.cpu.iq.FU_type_0::IntDiv                     0      0.00%     60.48% # Type of FU issued
system.cpu.iq.FU_type_0::FloatAdd                  27      0.00%     60.48% # Type of FU issued
system.cpu.iq.FU_type_0::FloatCmp                   0      0.00%     60.48% # Type of FU issued
system.cpu.iq.FU_type_0::FloatCvt                  17      0.00%     60.48% # Type of FU issued
system.cpu.iq.FU_type_0::FloatMult                  0      0.00%     60.48% # Type of FU issued
system.cpu.iq.FU_type_0::FloatMultAcc               0      0.00%     60.48% # Type of FU issued
system.cpu.iq.FU_type_0::FloatDiv                   5      0.00%     60.48% # Type of FU issued
system.cpu.iq.FU_type_0::FloatMisc                  0      0.00%     60.48% # Type of FU issued
system.cpu.iq.FU_type_0::FloatSqrt                  0      0.00%     60.48% # Type of FU issued
system.cpu.iq.FU_type_0::SimdAdd                    0      0.00%     60.48% # Type of FU issued
system.cpu.iq.FU_type_0::SimdAddAcc                 0      0.00%     60.48% # Type of FU issued
system.cpu.iq.FU_type_0::SimdAlu                    0      0.00%     60.48% # Type of FU issued
system.cpu.iq.FU_type_0::SimdCmp                    0      0.00%     60.48% # Type of FU issued
system.cpu.iq.FU_type_0::SimdCvt                    0      0.00%     60.48% # Type of FU issued
system.cpu.iq.FU_type_0::SimdMisc                   0      0.00%     60.48% # Type of FU issued
system.cpu.iq.FU_type_0::SimdMult                   0      0.00%     60.48% # Type of FU issued
system.cpu.iq.FU_type_0::SimdMultAcc                0      0.00%     60.48% # Type of FU issued
system.cpu.iq.FU_type_0::SimdShift                  0      0.00%     60.48% # Type of FU issued
system.cpu.iq.FU_type_0::SimdShiftAcc               0      0.00%     60.48% # Type of FU issued
system.cpu.iq.FU_type_0::SimdSqrt                   0      0.00%     60.48% # Type of FU issued
system.cpu.iq.FU_type_0::SimdFloatAdd               0      0.00%     60.48% # Type of FU issued
system.cpu.iq.FU_type_0::SimdFloatAlu               0      0.00%     60.48% # Type of FU issued
system.cpu.iq.FU_type_0::SimdFloatCmp               0      0.00%     60.48% # Type of FU issued
system.cpu.iq.FU_type_0::SimdFloatCvt               0      0.00%     60.48% # Type of FU issued
system.cpu.iq.FU_type_0::SimdFloatDiv               0      0.00%     60.48% # Type of FU issued
system.cpu.iq.FU_type_0::SimdFloatMisc              0      0.00%     60.48% # Type of FU issued
system.cpu.iq.FU_type_0::SimdFloatMult              0      0.00%     60.48% # Type of FU issued
system.cpu.iq.FU_type_0::SimdFloatMultAcc            0      0.00%     60.48% # Type of FU issued
system.cpu.iq.FU_type_0::SimdFloatSqrt              0      0.00%     60.48% # Type of FU issued
system.cpu.iq.FU_type_0::SimdAes                    0      0.00%     60.48% # Type of FU issued
system.cpu.iq.FU_type_0::SimdAesMix                 0      0.00%     60.48% # Type of FU issued
system.cpu.iq.FU_type_0::SimdSha1Hash               0      0.00%     60.48% # Type of FU issued
system.cpu.iq.FU_type_0::SimdSha1Hash2              0      0.00%     60.48% # Type of FU issued
system.cpu.iq.FU_type_0::SimdSha256Hash             0      0.00%     60.48% # Type of FU issued
system.cpu.iq.FU_type_0::SimdSha256Hash2            0      0.00%     60.48% # Type of FU issued
system.cpu.iq.FU_type_0::SimdShaSigma2              0      0.00%     60.48% # Type of FU issued
system.cpu.iq.FU_type_0::SimdShaSigma3              0      0.00%     60.48% # Type of FU issued
system.cpu.iq.FU_type_0::MemRead              9759284     23.08%     83.57% # Type of FU issued
system.cpu.iq.FU_type_0::MemWrite             6886117     16.29%     99.86% # Type of FU issued
system.cpu.iq.FU_type_0::FloatMemRead              15      0.00%     99.86% # Type of FU issued
system.cpu.iq.FU_type_0::FloatMemWrite          60012      0.14%    100.00% # Type of FU issued
system.cpu.iq.FU_type_0::IprAccess                  0      0.00%    100.00% # Type of FU issued
system.cpu.iq.FU_type_0::InstPrefetch               0      0.00%    100.00% # Type of FU issued
system.cpu.iq.FU_type_0::total               42276127                       # Type of FU issued
system.cpu.iq.rate                           1.583019                       # Inst issue rate
system.cpu.iq.fu_busy_cnt                      971358                       # FU busy when requested
system.cpu.iq.fu_busy_rate                   0.022977                       # FU busy rate (busy events/executed inst)
system.cpu.iq.int_inst_queue_reads          112047096                       # Number of integer instruction queue reads
system.cpu.iq.int_inst_queue_writes          50646477                       # Number of integer instruction queue writes
system.cpu.iq.int_inst_queue_wakeup_accesses     40286387                       # Number of integer instruction queue wakeup accesses
system.cpu.iq.fp_inst_queue_reads              130163                       # Number of floating instruction queue reads
system.cpu.iq.fp_inst_queue_writes              80048                       # Number of floating instruction queue writes
system.cpu.iq.fp_inst_queue_wakeup_accesses        60069                       # Number of floating instruction queue wakeup accesses
system.cpu.iq.vec_inst_queue_reads                  0                       # Number of vector instruction queue reads
system.cpu.iq.vec_inst_queue_writes                 0                       # Number of vector instruction queue writes
system.cpu.iq.vec_inst_queue_wakeup_accesses            0                       # Number of vector instruction queue wakeup accesses
system.cpu.iq.int_alu_accesses               43177087                       # Number of integer alu accesses
system.cpu.iq.fp_alu_accesses                   70086                       # Number of floating point alu accesses
system.cpu.iq.vec_alu_accesses                      0                       # Number of vector alu accesses
system.cpu.iew.lsq.thread0.forwLoads           452917                       # Number of loads that had data forwarded from stores
system.cpu.iew.lsq.thread0.invAddrLoads             0                       # Number of loads ignored due to an invalid address
system.cpu.iew.lsq.thread0.squashedLoads      1516809                       # Number of loads squashed
system.cpu.iew.lsq.thread0.ignoredResponses        48008                       # Number of memory responses ignored because the instruction is squashed
system.cpu.iew.lsq.thread0.memOrderViolation          306                       # Number of memory ordering violations
system.cpu.iew.lsq.thread0.squashedStores       808236                       # Number of stores squashed
system.cpu.iew.lsq.thread0.invAddrSwpfs             0                       # Number of software prefetches ignored due to an invalid address
system.cpu.iew.lsq.thread0.blockedLoads             0                       # Number of blocked loads due to partial load-store forwarding
system.cpu.iew.lsq.thread0.rescheduledLoads        10002                       # Number of loads that were rescheduled
system.cpu.iew.lsq.thread0.cacheBlocked        566606                       # Number of times an access to memory failed due to the cache being blocked
system.cpu.iew.iewIdleCycles                        0                       # Number of cycles IEW is idle
system.cpu.iew.iewSquashCycles                 541421                       # Number of cycles IEW is squashing
system.cpu.iew.iewBlockCycles                  922310                       # Number of cycles IEW is blocking
system.cpu.iew.iewUnblockCycles                436624                       # Number of cycles IEW is unblocking
system.cpu.iew.iewDispatchedInsts            48754874                       # Number of instructions dispatched to IQ
system.cpu.iew.iewDispSquashedInsts           1111388                       # Number of squashed instructions skipped by dispatch
system.cpu.iew.iewDispLoadInsts               9442423                       # Number of dispatched load instructions
system.cpu.iew.iewDispStoreInsts              7289844                       # Number of dispatched store instructions
system.cpu.iew.iewDispNonSpecInsts              60158                       # Number of dispatched non-speculative instructions
system.cpu.iew.iewIQFullEvents                    576                       # Number of times the IQ has become full, causing a stall
system.cpu.iew.iewLSQFullEvents                438964                       # Number of times the LSQ has become full, causing a stall
system.cpu.iew.memOrderViolationEvents            306                       # Number of memory order violations
system.cpu.iew.predictedTakenIncorrect         511370                       # Number of branches that were predicted taken incorrectly
system.cpu.iew.predictedNotTakenIncorrect        44351                       # Number of branches that were predicted not taken incorrectly
system.cpu.iew.branchMispredicts               555721                       # Number of branch mispredicts detected at execute
system.cpu.iew.iewExecutedInsts              41495746                       # Number of executed instructions
system.cpu.iew.iewExecLoadInsts               9526826                       # Number of load instructions executed
system.cpu.iew.iewExecSquashedInsts            780381                       # Number of squashed instructions skipped in execute
system.cpu.iew.exec_swp                             0                       # number of swp insts executed
system.cpu.iew.exec_nop                       5321398                       # number of nop insts executed
system.cpu.iew.exec_refs                     16320701                       # number of memory reference insts executed
system.cpu.iew.exec_branches                  6267329                       # Number of branches executed
system.cpu.iew.exec_stores                    6793875                       # Number of stores executed
system.cpu.iew.exec_rate                     1.553797                       # Inst execution rate
system.cpu.iew.wb_sent                       40510269                       # cumulative count of insts sent to commit
system.cpu.iew.wb_count                      40346456                       # cumulative count of insts written-back
system.cpu.iew.wb_producers                  19140984                       # num instructions producing a value
system.cpu.iew.wb_consumers                  24792322                       # num instructions consuming a value
system.cpu.iew.wb_rate                       1.510763                       # insts written-back per cycle
system.cpu.iew.wb_fanout                     0.772053                       # average fanout of values written-back
system.cpu.commit.commitSquashedInsts         7944419                       # The number of squashed insts skipped by commit
system.cpu.commit.commitNonSpecStalls           90097                       # The number of times commit has been forced to stall to communicate backwards
system.cpu.commit.branchMispredicts            538185                       # The number of times a branch was mispredicted
system.cpu.commit.committed_per_cycle::samples     25324830                       # Number of insts commited each cycle
system.cpu.commit.committed_per_cycle::mean     1.609281                       # Number of insts commited each cycle
system.cpu.commit.committed_per_cycle::stdev     2.559167                       # Number of insts commited each cycle
system.cpu.commit.committed_per_cycle::underflows            0      0.00%      0.00% # Number of insts commited each cycle
system.cpu.commit.committed_per_cycle::0     13967975     55.16%     55.16% # Number of insts commited each cycle
system.cpu.commit.committed_per_cycle::1      4047259     15.98%     71.14% # Number of insts commited each cycle
system.cpu.commit.committed_per_cycle::2      1678469      6.63%     77.76% # Number of insts commited each cycle
system.cpu.commit.committed_per_cycle::3      1018891      4.02%     81.79% # Number of insts commited each cycle
system.cpu.commit.committed_per_cycle::4       944327      3.73%     85.52% # Number of insts commited each cycle
system.cpu.commit.committed_per_cycle::5       522203      2.06%     87.58% # Number of insts commited each cycle
system.cpu.commit.committed_per_cycle::6       463612      1.83%     89.41% # Number of insts commited each cycle
system.cpu.commit.committed_per_cycle::7       332856      1.31%     90.72% # Number of insts commited each cycle
system.cpu.commit.committed_per_cycle::8      2349238      9.28%    100.00% # Number of insts commited each cycle
system.cpu.commit.committed_per_cycle::overflows            0      0.00%    100.00% # Number of insts commited each cycle
system.cpu.commit.committed_per_cycle::min_value            0                       # Number of insts commited each cycle
system.cpu.commit.committed_per_cycle::max_value            8                       # Number of insts commited each cycle
system.cpu.commit.committed_per_cycle::total     25324830                       # Number of insts commited each cycle
system.cpu.commit.committedInsts             40754761                       # Number of instructions committed
system.cpu.commit.committedOps               40754761                       # Number of ops (including micro ops) committed
system.cpu.commit.swp_count                         0                       # Number of s/w prefetches committed
system.cpu.commit.refs                       14407222                       # Number of memory references committed
system.cpu.commit.loads                       7925614                       # Number of loads committed
system.cpu.commit.membars                       40032                       # Number of memory barriers committed
system.cpu.commit.branches                    5508468                       # Number of branches committed
system.cpu.commit.vec_insts                         0                       # Number of committed Vector instructions.
system.cpu.commit.fp_insts                      40106                       # Number of committed floating point instructions.
system.cpu.commit.int_insts                  35527028                       # Number of committed integer instructions.
system.cpu.commit.function_calls               656431                       # Number of function calls committed.
system.cpu.commit.op_class_0::No_OpClass      4614046     11.32%     11.32% # Class of committed instruction
system.cpu.commit.op_class_0::IntAlu         21668963     53.17%     64.49% # Class of committed instruction
system.cpu.commit.op_class_0::IntMult           24448      0.06%     64.55% # Class of committed instruction
system.cpu.commit.op_class_0::IntDiv                0      0.00%     64.55% # Class of committed instruction
system.cpu.commit.op_class_0::FloatAdd             27      0.00%     64.55% # Class of committed instruction
system.cpu.commit.op_class_0::FloatCmp              0      0.00%     64.55% # Class of committed instruction
system.cpu.commit.op_class_0::FloatCvt             17      0.00%     64.55% # Class of committed instruction
system.cpu.commit.op_class_0::FloatMult             0      0.00%     64.55% # Class of committed instruction
system.cpu.commit.op_class_0::FloatMultAcc            0      0.00%     64.55% # Class of committed instruction
system.cpu.commit.op_class_0::FloatDiv              5      0.00%     64.55% # Class of committed instruction
system.cpu.commit.op_class_0::FloatMisc             0      0.00%     64.55% # Class of committed instruction
system.cpu.commit.op_class_0::FloatSqrt             0      0.00%     64.55% # Class of committed instruction
system.cpu.commit.op_class_0::SimdAdd               0      0.00%     64.55% # Class of committed instruction
system.cpu.commit.op_class_0::SimdAddAcc            0      0.00%     64.55% # Class of committed instruction
system.cpu.commit.op_class_0::SimdAlu               0      0.00%     64.55% # Class of committed instruction
system.cpu.commit.op_class_0::SimdCmp               0      0.00%     64.55% # Class of committed instruction
system.cpu.commit.op_class_0::SimdCvt               0      0.00%     64.55% # Class of committed instruction
system.cpu.commit.op_class_0::SimdMisc              0      0.00%     64.55% # Class of committed instruction
system.cpu.commit.op_class_0::SimdMult              0      0.00%     64.55% # Class of committed instruction
system.cpu.commit.op_class_0::SimdMultAcc            0      0.00%     64.55% # Class of committed instruction
system.cpu.commit.op_class_0::SimdShift             0      0.00%     64.55% # Class of committed instruction
system.cpu.commit.op_class_0::SimdShiftAcc            0      0.00%     64.55% # Class of committed instruction
system.cpu.commit.op_class_0::SimdSqrt              0      0.00%     64.55% # Class of committed instruction
system.cpu.commit.op_class_0::SimdFloatAdd            0      0.00%     64.55% # Class of committed instruction
system.cpu.commit.op_class_0::SimdFloatAlu            0      0.00%     64.55% # Class of committed instruction
system.cpu.commit.op_class_0::SimdFloatCmp            0      0.00%     64.55% # Class of committed instruction
system.cpu.commit.op_class_0::SimdFloatCvt            0      0.00%     64.55% # Class of committed instruction
system.cpu.commit.op_class_0::SimdFloatDiv            0      0.00%     64.55% # Class of committed instruction
system.cpu.commit.op_class_0::SimdFloatMisc            0      0.00%     64.55% # Class of committed instruction
system.cpu.commit.op_class_0::SimdFloatMult            0      0.00%     64.55% # Class of committed instruction
system.cpu.commit.op_class_0::SimdFloatMultAcc            0      0.00%     64.55% # Class of committed instruction
system.cpu.commit.op_class_0::SimdFloatSqrt            0      0.00%     64.55% # Class of committed instruction
system.cpu.commit.op_class_0::SimdAes               0      0.00%     64.55% # Class of committed instruction
system.cpu.commit.op_class_0::SimdAesMix            0      0.00%     64.55% # Class of committed instruction
system.cpu.commit.op_class_0::SimdSha1Hash            0      0.00%     64.55% # Class of committed instruction
system.cpu.commit.op_class_0::SimdSha1Hash2            0      0.00%     64.55% # Class of committed instruction
system.cpu.commit.op_class_0::SimdSha256Hash            0      0.00%     64.55% # Class of committed instruction
system.cpu.commit.op_class_0::SimdSha256Hash2            0      0.00%     64.55% # Class of committed instruction
system.cpu.commit.op_class_0::SimdShaSigma2            0      0.00%     64.55% # Class of committed instruction
system.cpu.commit.op_class_0::SimdShaSigma3            0      0.00%     64.55% # Class of committed instruction
system.cpu.commit.op_class_0::MemRead         7965631     19.55%     84.10% # Class of committed instruction
system.cpu.commit.op_class_0::MemWrite        6441567     15.81%     99.90% # Class of committed instruction
system.cpu.commit.op_class_0::FloatMemRead           15      0.00%     99.90% # Class of committed instruction
system.cpu.commit.op_class_0::FloatMemWrite        40042      0.10%    100.00% # Class of committed instruction
system.cpu.commit.op_class_0::IprAccess             0      0.00%    100.00% # Class of committed instruction
system.cpu.commit.op_class_0::InstPrefetch            0      0.00%    100.00% # Class of committed instruction
system.cpu.commit.op_class_0::total          40754761                       # Class of committed instruction
system.cpu.commit.bw_lim_events               2349238                       # number cycles where commit BW limit reached
system.cpu.rob.rob_reads                     71635161                       # The number of ROB reads
system.cpu.rob.rob_writes                    98705819                       # The number of ROB writes
system.cpu.timesIdled                             573                       # Number of times that the entire CPU went into an idle state and unscheduled itself
system.cpu.idleCycles                           73781                       # Total number of cycles that the CPU has spent unscheduled due to idling
system.cpu.committedInsts                    36140729                       # Number of Instructions Simulated
system.cpu.committedOps                      36140729                       # Number of Ops (including micro ops) Simulated
system.cpu.cpi                               0.738945                       # CPI: Cycles Per Instruction
system.cpu.cpi_total                         0.738945                       # CPI: Total CPI of All Threads
[...]
system.l2.ReadCleanReq_miss_rate::total      0.907534                       # miss rate for ReadCleanReq accesses
system.l2.ReadSharedReq_miss_rate::.cpu.data     0.144385                       # miss rate for ReadSharedReq accesses
system.l2.ReadSharedReq_miss_rate::total     0.144385                       # miss rate for ReadSharedReq accesses
system.l2.InvalidateReq_miss_rate::.cpu.data     0.001658                       # miss rate for InvalidateReq accesses
system.l2.InvalidateReq_miss_rate::total     0.001658                       # miss rate for InvalidateReq accesses
system.l2.demand_miss_rate::.cpu.inst        0.907534                       # miss rate for demand accesses
system.l2.demand_miss_rate::.cpu.data        0.165067                       # miss rate for demand accesses
system.l2.demand_miss_rate::total            0.166441                       # miss rate for demand accesses
system.l2.overall_miss_rate::.cpu.inst       0.907534                       # miss rate for overall accesses
system.l2.overall_miss_rate::.cpu.data       0.165067                       # miss rate for overall accesses
system.l2.overall_miss_rate::total           0.166441                       # miss rate for overall accesses
system.l2.ReadExReq_avg_miss_latency::.cpu.data 94033.449673                       # average ReadExReq miss latency
system.l2.ReadExReq_avg_miss_latency::total 94033.449673                       # average ReadExReq miss latency
system.l2.ReadCleanReq_avg_miss_latency::.cpu.inst 84128.301887                       # average ReadCleanReq miss latency
system.l2.ReadCleanReq_avg_miss_latency::total 84128.301887                       # average ReadCleanReq miss latency
system.l2.ReadSharedReq_avg_miss_latency::.cpu.data 99462.745154                       # average ReadSharedReq miss latency
system.l2.ReadSharedReq_avg_miss_latency::total 99462.745154                       # average ReadSharedReq miss latency
system.l2.demand_avg_miss_latency::.cpu.inst 84128.301887                       # average overall miss latency
system.l2.demand_avg_miss_latency::.cpu.data 96490.227637                       # average overall miss latency
system.l2.demand_avg_miss_latency::total 96365.462740                       # average overall miss latency
system.l2.overall_avg_miss_latency::.cpu.inst 84128.301887                       # average overall miss latency
system.l2.overall_avg_miss_latency::.cpu.data 96490.227637                       # average overall miss latency
system.l2.overall_avg_miss_latency::total 96365.462740                       # average overall miss latency
system.l2.blocked_cycles::no_mshrs                  0                       # number of cycles access was blocked
system.l2.blocked_cycles::no_targets                0                       # number of cycles access was blocked
system.l2.blocked::no_mshrs                         0                       # number of cycles access was blocked
system.l2.blocked::no_targets                       0                       # number of cycles access was blocked
system.l2.avg_blocked_cycles::no_mshrs            nan                       # average number of cycles each access was blocked
system.l2.avg_blocked_cycles::no_targets          nan                       # average number of cycles each access was blocked
system.l2.writebacks::.writebacks               37869                       # number of writebacks
system.l2.writebacks::total                     37869                       # number of writebacks
system.l2.CleanEvict_mshr_misses::.writebacks            1                       # number of CleanEvict MSHR misses
system.l2.CleanEvict_mshr_misses::total             1                       # number of CleanEvict MSHR misses
system.l2.ReadExReq_mshr_misses::.cpu.data        42691                       # number of ReadExReq MSHR misses
system.l2.ReadExReq_mshr_misses::total          42691                       # number of ReadExReq MSHR misses
system.l2.ReadCleanReq_mshr_misses::.cpu.inst          795                       # number of ReadCleanReq MSHR misses
system.l2.ReadCleanReq_mshr_misses::total          795                       # number of ReadCleanReq MSHR misses
system.l2.ReadSharedReq_mshr_misses::.cpu.data        35284                       # number of ReadSharedReq MSHR misses
system.l2.ReadSharedReq_mshr_misses::total        35284                       # number of ReadSharedReq MSHR misses
system.l2.InvalidateReq_mshr_misses::.cpu.data            8                       # number of InvalidateReq MSHR misses
system.l2.InvalidateReq_mshr_misses::total            8                       # number of InvalidateReq MSHR misses
system.l2.demand_mshr_misses::.cpu.inst           795                       # number of demand (read+write) MSHR misses
system.l2.demand_mshr_misses::.cpu.data         77975                       # number of demand (read+write) MSHR misses
system.l2.demand_mshr_misses::total             78770                       # number of demand (read+write) MSHR misses
system.l2.overall_mshr_misses::.cpu.inst          795                       # number of overall MSHR misses
system.l2.overall_mshr_misses::.cpu.data        77975                       # number of overall MSHR misses
system.l2.overall_mshr_misses::total            78770                       # number of overall MSHR misses
system.l2.ReadExReq_mshr_miss_latency::.cpu.data   3587472000                       # number of ReadExReq MSHR miss cycles
system.l2.ReadExReq_mshr_miss_latency::total   3587472000                       # number of ReadExReq MSHR miss cycles
system.l2.ReadCleanReq_mshr_miss_latency::.cpu.inst     58932000                       # number of ReadCleanReq MSHR miss cycles
system.l2.ReadCleanReq_mshr_miss_latency::total     58932000                       # number of ReadCleanReq MSHR miss cycles
system.l2.ReadSharedReq_mshr_miss_latency::.cpu.data   3156613500                       # number of ReadSharedReq MSHR miss cycles
system.l2.ReadSharedReq_mshr_miss_latency::total   3156613500                       # number of ReadSharedReq MSHR miss cycles
system.l2.InvalidateReq_mshr_miss_latency::.cpu.data       154000                       # number of InvalidateReq MSHR miss cycles
system.l2.InvalidateReq_mshr_miss_latency::total       154000                       # number of InvalidateReq MSHR miss cycles
system.l2.demand_mshr_miss_latency::.cpu.inst     58932000                       # number of demand (read+write) MSHR miss cycles
system.l2.demand_mshr_miss_latency::.cpu.data   6744085500                       # number of demand (read+write) MSHR miss cycles
system.l2.demand_mshr_miss_latency::total   6803017500                       # number of demand (read+write) MSHR miss cycles
system.l2.overall_mshr_miss_latency::.cpu.inst     58932000                       # number of overall MSHR miss cycles
system.l2.overall_mshr_miss_latency::.cpu.data   6744085500                       # number of overall MSHR miss cycles
system.l2.overall_mshr_miss_latency::total   6803017500                       # number of overall MSHR miss cycles
system.l2.CleanEvict_mshr_miss_rate::.writebacks          inf                       # mshr miss rate for CleanEvict accesses
system.l2.CleanEvict_mshr_miss_rate::total          inf                       # mshr miss rate for CleanEvict accesses
system.l2.ReadExReq_mshr_miss_rate::.cpu.data     0.187233                       # mshr miss rate for ReadExReq accesses
system.l2.ReadExReq_mshr_miss_rate::total     0.187233                       # mshr miss rate for ReadExReq accesses
system.l2.ReadCleanReq_mshr_miss_rate::.cpu.inst     0.907534                       # mshr miss rate for ReadCleanReq accesses
system.l2.ReadCleanReq_mshr_miss_rate::total     0.907534                       # mshr miss rate for ReadCleanReq accesses
system.l2.ReadSharedReq_mshr_miss_rate::.cpu.data     0.144385                       # mshr miss rate for ReadSharedReq accesses
system.l2.ReadSharedReq_mshr_miss_rate::total     0.144385                       # mshr miss rate for ReadSharedReq accesses
system.l2.InvalidateReq_mshr_miss_rate::.cpu.data     0.001658                       # mshr miss rate for InvalidateReq accesses
system.l2.InvalidateReq_mshr_miss_rate::total     0.001658                       # mshr miss rate for InvalidateReq accesses
system.l2.demand_mshr_miss_rate::.cpu.inst     0.907534                       # mshr miss rate for demand accesses
system.l2.demand_mshr_miss_rate::.cpu.data     0.165067                       # mshr miss rate for demand accesses
system.l2.demand_mshr_miss_rate::total       0.166441                       # mshr miss rate for demand accesses
system.l2.overall_mshr_miss_rate::.cpu.inst     0.907534                       # mshr miss rate for overall accesses
system.l2.overall_mshr_miss_rate::.cpu.data     0.165067                       # mshr miss rate for overall accesses
system.l2.overall_mshr_miss_rate::total      0.166441                       # mshr miss rate for overall accesses
system.l2.ReadExReq_avg_mshr_miss_latency::.cpu.data 84033.449673                       # average ReadExReq mshr miss latency
system.l2.ReadExReq_avg_mshr_miss_latency::total 84033.449673                       # average ReadExReq mshr miss latency
system.l2.ReadCleanReq_avg_mshr_miss_latency::.cpu.inst 74128.301887                       # average ReadCleanReq mshr miss latency
system.l2.ReadCleanReq_avg_mshr_miss_latency::total 74128.301887                       # average ReadCleanReq mshr miss latency
system.l2.ReadSharedReq_avg_mshr_miss_latency::.cpu.data 89463.028568                       # average ReadSharedReq mshr miss latency
system.l2.ReadSharedReq_avg_mshr_miss_latency::total 89463.028568                       # average ReadSharedReq mshr miss latency
system.l2.InvalidateReq_avg_mshr_miss_latency::.cpu.data        19250                       # average InvalidateReq mshr miss latency
system.l2.InvalidateReq_avg_mshr_miss_latency::total        19250                       # average InvalidateReq mshr miss latency
system.l2.demand_avg_mshr_miss_latency::.cpu.inst 74128.301887                       # average overall mshr miss latency
system.l2.demand_avg_mshr_miss_latency::.cpu.data 86490.355883                       # average overall mshr miss latency
system.l2.demand_avg_mshr_miss_latency::total 86365.589692                       # average overall mshr miss latency
system.l2.overall_avg_mshr_miss_latency::.cpu.inst 74128.301887                       # average overall mshr miss latency
system.l2.overall_avg_mshr_miss_latency::.cpu.data 86490.355883                       # average overall mshr miss latency
system.l2.overall_avg_mshr_miss_latency::total 86365.589692                       # average overall mshr miss latency
system.l2.replacements                          46084                       # number of replacements
system.membus.snoop_filter.tot_requests        124391                       # Total number of requests made to the snoop filter.
system.membus.snoop_filter.hit_single_requests        45613                       # Number of requests hitting in the snoop filter with a single holder of the requested data.
system.membus.snoop_filter.hit_multi_requests            0                       # Number of requests hitting in the snoop filter with multiple (>1) holders of the requested data.
system.membus.snoop_filter.tot_snoops               0                       # Total number of snoops made to the snoop filter.
system.membus.snoop_filter.hit_single_snoops            0                       # Number of snoops hitting in the snoop filter with a single holder of the requested data.
system.membus.snoop_filter.hit_multi_snoops            0                       # Number of snoops hitting in the snoop filter with multiple (>1) holders of the requested data.
system.membus.pwrStateResidencyTicks::UNDEFINED  13353009500                       # Cumulative time (in ticks) in various power states
system.membus.trans_dist::ReadResp              36078                       # Transaction distribution
system.membus.trans_dist::WritebackDirty        37869                       # Transaction distribution
system.membus.trans_dist::CleanEvict             7744                       # Transaction distribution
system.membus.trans_dist::ReadExReq             42691                       # Transaction distribution
system.membus.trans_dist::ReadExResp            42691                       # Transaction distribution
system.membus.trans_dist::ReadSharedReq         36079                       # Transaction distribution
system.membus.trans_dist::InvalidateReq             8                       # Transaction distribution
system.membus.pkt_count_system.l2.mem_side::system.mem_ctrls.port       203160                       # Packet count per connected master and slave (bytes)
system.membus.pkt_count::total                 203160                       # Packet count per connected master and slave (bytes)
system.membus.pkt_size_system.l2.mem_side::system.mem_ctrls.port      7464832                       # Cumulative packet size per connected master and slave (bytes)
system.membus.pkt_size::total                 7464832                       # Cumulative packet size per connected master and slave (bytes)
system.membus.snoops                                0                       # Total snoops (count)
system.membus.snoopTraffic                          0                       # Total snoop traffic (bytes)
system.membus.snoop_fanout::samples             78778                       # Request fanout histogram
system.membus.snoop_fanout::mean                    0                       # Request fanout histogram
system.membus.snoop_fanout::stdev                   0                       # Request fanout histogram
system.membus.snoop_fanout::underflows              0      0.00%      0.00% # Request fanout histogram
system.membus.snoop_fanout::0                   78778    100.00%    100.00% # Request fanout histogram
system.membus.snoop_fanout::1                       0      0.00%    100.00% # Request fanout histogram
system.membus.snoop_fanout::overflows               0      0.00%    100.00% # Request fanout histogram
system.membus.snoop_fanout::min_value               0                       # Request fanout histogram
system.membus.snoop_fanout::max_value               0                       # Request fanout histogram
system.membus.snoop_fanout::total               78778                       # Request fanout histogram
system.membus.reqLayer0.occupancy           292913500                       # Layer occupancy (ticks)
system.membus.reqLayer0.utilization               2.2                       # Layer utilization (%)
system.membus.respLayer1.occupancy          414072250                       # Layer occupancy (ticks)
system.membus.respLayer1.utilization              3.1                       # Layer utilization (%)
system.tol2bus.snoop_filter.tot_requests       954662                       # Total number of requests made to the snoop filter.
system.tol2bus.snoop_filter.hit_single_requests       476576                       # Number of requests hitting in the snoop filter with a single holder of the requested data.
system.tol2bus.snoop_filter.hit_multi_requests            0                       # Number of requests hitting in the snoop filter with multiple (>1) holders of the requested data.
system.tol2bus.snoop_filter.tot_snoops            472                       # Total number of snoops made to the snoop filter.
system.tol2bus.snoop_filter.hit_single_snoops          472                       # Number of snoops hitting in the snoop filter with a single holder of the requested data.
system.tol2bus.snoop_filter.hit_multi_snoops            0                       # Number of snoops hitting in the snoop filter with multiple (>1) holders of the requested data.
system.tol2bus.pwrStateResidencyTicks::UNDEFINED  13353009500                       # Cumulative time (in ticks) in various power states
system.tol2bus.trans_dist::ReadResp            245249                       # Transaction distribution
system.tol2bus.trans_dist::WritebackDirty       488554                       # Transaction distribution
system.tol2bus.trans_dist::WritebackClean          391                       # Transaction distribution
system.tol2bus.trans_dist::CleanEvict           33715                       # Transaction distribution
system.tol2bus.trans_dist::ReadExReq           228010                       # Transaction distribution
system.tol2bus.trans_dist::ReadExResp          228010                       # Transaction distribution
system.tol2bus.trans_dist::ReadCleanReq           876                       # Transaction distribution
system.tol2bus.trans_dist::ReadSharedReq       244374                       # Transaction distribution
system.tol2bus.trans_dist::InvalidateReq         4826                       # Transaction distribution
system.tol2bus.trans_dist::InvalidateResp         4826                       # Transaction distribution
system.tol2bus.pkt_count_system.cpu.icache.mem_side::system.l2.cpu_side         2143                       # Packet count per connected master and slave (bytes)
system.tol2bus.pkt_count_system.cpu.dcache.mem_side::system.l2.cpu_side      1430604                       # Packet count per connected master and slave (bytes)
system.tol2bus.pkt_count::total               1432747                       # Packet count per connected master and slave (bytes)
system.tol2bus.pkt_size_system.cpu.icache.mem_side::system.l2.cpu_side        81088                       # Cumulative packet size per connected master and slave (bytes)
system.tol2bus.pkt_size_system.cpu.dcache.mem_side::system.l2.cpu_side     59076352                       # Cumulative packet size per connected master and slave (bytes)
system.tol2bus.pkt_size::total               59157440                       # Cumulative packet size per connected master and slave (bytes)
system.tol2bus.snoops                           46084                       # Total snoops (count)
system.tol2bus.snoopTraffic                   2423616                       # Total snoop traffic (bytes)
system.tol2bus.snoop_fanout::samples           524170                       # Request fanout histogram
system.tol2bus.snoop_fanout::mean            0.000900                       # Request fanout histogram
system.tol2bus.snoop_fanout::stdev           0.029994                       # Request fanout histogram
system.tol2bus.snoop_fanout::underflows             0      0.00%      0.00% # Request fanout histogram
system.tol2bus.snoop_fanout::0                 523698     99.91%     99.91% # Request fanout histogram
system.tol2bus.snoop_fanout::1                    472      0.09%    100.00% # Request fanout histogram
system.tol2bus.snoop_fanout::2                      0      0.00%    100.00% # Request fanout histogram
system.tol2bus.snoop_fanout::overflows              0      0.00%    100.00% # Request fanout histogram
system.tol2bus.snoop_fanout::min_value              0                       # Request fanout histogram
system.tol2bus.snoop_fanout::max_value              1                       # Request fanout histogram
system.tol2bus.snoop_fanout::total             524170                       # Request fanout histogram
system.tol2bus.reqLayer0.occupancy          928407000                       # Layer occupancy (ticks)
system.tol2bus.reqLayer0.utilization              7.0                       # Layer utilization (%)
system.tol2bus.respLayer0.occupancy           1314000                       # Layer occupancy (ticks)
system.tol2bus.respLayer0.utilization             0.0                       # Layer utilization (%)
system.tol2bus.respLayer1.occupancy         710987999                       # Layer occupancy (ticks)
system.tol2bus.respLayer1.utilization             5.3                       # Layer utilization (%)

---------- End Simulation Statistics   ----------
