
---------- Begin Simulation Statistics ----------
sim_seconds                                  0.230915                       # Number of seconds simulated
sim_ticks                                230914965500                       # Number of ticks simulated
final_tick                               230914965500                       # Number of ticks from beginning of simulation (restored from checkpoints and never reset)
sim_freq                                 1000000000000                       # Frequency of simulated ticks
host_inst_rate                                 320110                       # Simulator instruction rate (inst/s)
host_op_rate                                   320110                       # Simulator op (including micro ops) rate (op/s)
host_tick_rate                             1209895908                       # Simulator tick rate (ticks/s)
host_mem_usage                                 666708                       # Number of bytes of host memory used
host_seconds                                   190.86                       # Real time elapsed on the host
sim_insts                                    61094659                       # Number of instructions simulated
sim_ops                                      61094659                       # Number of ops (including micro ops) simulated
system.voltage_domain.voltage                       1                       # Voltage in Volts
system.clk_domain.clock                          1000                       # Clock period in ticks
system.mem_ctrls.pwrStateResidencyTicks::UNDEFINED 230914965500                       # Cumulative time (in ticks) in various power states
system.mem_ctrls.bytes_read::.cpu.inst         123664                       # Number of bytes read from this memory
system.mem_ctrls.bytes_read::.cpu.data        5416192                       # Number of bytes read from this memory
system.mem_ctrls.bytes_read::total            5539856                       # Number of bytes read from this memory
system.mem_ctrls.bytes_inst_read::.cpu.inst       123664                       # Number of instructions bytes read from this memory
system.mem_ctrls.bytes_inst_read::total        123664                       # Number of instructions bytes read from this memory
system.mem_ctrls.bytes_written::.writebacks       504336                       # Number of bytes written to this memory
system.mem_ctrls.bytes_written::total          504336                       # Number of bytes written to this memory
system.mem_ctrls.num_reads::.cpu.inst            7729                       # Number of read requests responded to by this memory
system.mem_ctrls.num_reads::.cpu.data          338512                       # Number of read requests responded to by this memory
system.mem_ctrls.num_reads::total              346241                       # Number of read requests responded to by this memory
system.mem_ctrls.num_writes::.writebacks        31521                       # Number of write requests responded to by this memory
system.mem_ctrls.num_writes::total              31521                       # Number of write requests responded to by this memory
system.mem_ctrls.bw_read::.cpu.inst            535539                       # Total read bandwidth from this memory (bytes/s)
system.mem_ctrls.bw_read::.cpu.data          23455353                       # Total read bandwidth from this memory (bytes/s)
system.mem_ctrls.bw_read::total              23990892                       # Total read bandwidth from this memory (bytes/s)
system.mem_ctrls.bw_inst_read::.cpu.inst       535539                       # Instruction read bandwidth from this memory (bytes/s)
system.mem_ctrls.bw_inst_read::total           535539                       # Instruction read bandwidth from this memory (bytes/s)
system.mem_ctrls.bw_write::.writebacks        2184077                       # Write bandwidth from this memory (bytes/s)
system.mem_ctrls.bw_write::total              2184077                       # Write bandwidth from this memory (bytes/s)
system.mem_ctrls.bw_total::.writebacks        2184077                       # Total bandwidth to/from this memory (bytes/s)
system.mem_ctrls.bw_total::.cpu.inst           535539                       # Total bandwidth to/from this memory (bytes/s)
system.mem_ctrls.bw_total::.cpu.data         23455353                       # Total bandwidth to/from this memory (bytes/s)
system.mem_ctrls.bw_total::total             26174969                       # Total bandwidth to/from this memory (bytes/s)
system.mem_ctrls.avgPriority_.writebacks::samples     23987.00                       # Average QoS priority value for accepted requests
system.mem_ctrls.avgPriority_.cpu.inst::samples      7729.00                       # Average QoS priority value for accepted requests
system.mem_ctrls.avgPriority_.cpu.data::samples    333984.00                       # Average QoS priority value for accepted requests
system.mem_ctrls.priorityMinLatency      0.000000018750                       # per QoS priority minimum request to response latency (s)
system.mem_ctrls.priorityMaxLatency      0.007164700500                       # per QoS priority maximum request to response latency (s)
system.mem_ctrls.numReadWriteTurnArounds         1356                       # Number of turnarounds from READ to WRITE
system.mem_ctrls.numWriteReadTurnArounds         1356                       # Number of turnarounds from WRITE to READ
system.mem_ctrls.numStayReadState              761299                       # Number of times bus staying in READ state
system.mem_ctrls.numStayWriteState              22857                       # Number of times bus staying in WRITE state
system.mem_ctrls.readReqs                      346241                       # Number of read requests accepted
system.mem_ctrls.writeReqs                      31521                       # Number of write requests accepted
system.mem_ctrls.readBursts                    346241                       # Number of DRAM read bursts, including those serviced by the write queue
system.mem_ctrls.writeBursts                    31521                       # Number of DRAM write bursts, including those merged in the write queue
system.mem_ctrls.bytesReadDRAM               21869632                       # Total number of bytes read from DRAM
system.mem_ctrls.bytesReadWrQ                  289792                       # Total number of bytes read from write queue
system.mem_ctrls.bytesWritten                 1533952                       # Total number of bytes written to DRAM
system.mem_ctrls.bytesReadSys                 5539856                       # Total read bytes from the system interface side
system.mem_ctrls.bytesWrittenSys               504336                       # Total written bytes from the system interface side
system.mem_ctrls.servicedByWrQ                   4528                       # Number of DRAM read bursts serviced by the write queue
system.mem_ctrls.mergedWrBursts                  7534                       # Number of DRAM write bursts merged with an existing one
system.mem_ctrls.neitherReadNorWriteReqs            0                       # Number of requests that are neither read nor write
system.mem_ctrls.perBankRdBursts::0              1890                       # Per bank write bursts
system.mem_ctrls.perBankRdBursts::1              2188                       # Per bank write bursts
system.mem_ctrls.perBankRdBursts::2             11443                       # Per bank write bursts
system.mem_ctrls.perBankRdBursts::3             32863                       # Per bank write bursts
system.mem_ctrls.perBankRdBursts::4              2947                       # Per bank write bursts
system.mem_ctrls.perBankRdBursts::5               991                       # Per bank write bursts
system.mem_ctrls.perBankRdBursts::6             11932                       # Per bank write bursts
system.mem_ctrls.perBankRdBursts::7             56434                       # Per bank write bursts
system.mem_ctrls.perBankRdBursts::8             59403                       # Per bank write bursts
system.mem_ctrls.perBankRdBursts::9             58940                       # Per bank write bursts
system.mem_ctrls.perBankRdBursts::10            61369                       # Per bank write bursts
system.mem_ctrls.perBankRdBursts::11            41146                       # Per bank write bursts
system.mem_ctrls.perBankRdBursts::12               16                       # Per bank write bursts
system.mem_ctrls.perBankRdBursts::13               99                       # Per bank write bursts
system.mem_ctrls.perBankRdBursts::14               52                       # Per bank write bursts
system.mem_ctrls.perBankRdBursts::15                0                       # Per bank write bursts
system.mem_ctrls.perBankWrBursts::0                 0                       # Per bank write bursts
system.mem_ctrls.perBankWrBursts::1               743                       # Per bank write bursts
system.mem_ctrls.perBankWrBursts::2              5279                       # Per bank write bursts
system.mem_ctrls.perBankWrBursts::3             16422                       # Per bank write bursts
system.mem_ctrls.perBankWrBursts::4                91                       # Per bank write bursts
system.mem_ctrls.perBankWrBursts::5                81                       # Per bank write bursts
system.mem_ctrls.perBankWrBursts::6               118                       # Per bank write bursts
system.mem_ctrls.perBankWrBursts::7               276                       # Per bank write bursts
system.mem_ctrls.perBankWrBursts::8               249                       # Per bank write bursts
system.mem_ctrls.perBankWrBursts::9               261                       # Per bank write bursts
system.mem_ctrls.perBankWrBursts::10              277                       # Per bank write bursts
system.mem_ctrls.perBankWrBursts::11              171                       # Per bank write bursts
system.mem_ctrls.perBankWrBursts::12                0                       # Per bank write bursts
system.mem_ctrls.perBankWrBursts::13                0                       # Per bank write bursts
system.mem_ctrls.perBankWrBursts::14                0                       # Per bank write bursts
system.mem_ctrls.perBankWrBursts::15                0                       # Per bank write bursts
system.mem_ctrls.numRdRetry                         0                       # Number of times read queue was full causing retry
system.mem_ctrls.numWrRetry                         0                       # Number of times write queue was full causing retry
system.mem_ctrls.totGap                  230914887500                       # Total gap between requests
system.mem_ctrls.readPktSize::0                     0                       # Read request sizes (log2)
system.mem_ctrls.readPktSize::1                     0                       # Read request sizes (log2)
system.mem_ctrls.readPktSize::2                     0                       # Read request sizes (log2)
system.mem_ctrls.readPktSize::3                     0                       # Read request sizes (log2)
system.mem_ctrls.readPktSize::4                346241                       # Read request sizes (log2)
system.mem_ctrls.readPktSize::5                     0                       # Read request sizes (log2)
system.mem_ctrls.readPktSize::6                     0                       # Read request sizes (log2)
system.mem_ctrls.writePktSize::0                    0                       # Write request sizes (log2)
system.mem_ctrls.writePktSize::1                    0                       # Write request sizes (log2)
system.mem_ctrls.writePktSize::2                    0                       # Write request sizes (log2)
system.mem_ctrls.writePktSize::3                    0                       # Write request sizes (log2)
system.mem_ctrls.writePktSize::4                31521                       # Write request sizes (log2)
system.mem_ctrls.writePktSize::5                    0                       # Write request sizes (log2)
system.mem_ctrls.writePktSize::6                    0                       # Write request sizes (log2)
system.mem_ctrls.rdQLenPdf::0                  341713                       # What read queue length does an incoming req see
system.mem_ctrls.rdQLenPdf::1                       0                       # What read queue length does an incoming req see
system.mem_ctrls.rdQLenPdf::2                       0                       # What read queue length does an incoming req see
system.mem_ctrls.rdQLenPdf::3                       0                       # What read queue length does an incoming req see
system.mem_ctrls.rdQLenPdf::4                       0                       # What read queue length does an incoming req see
system.mem_ctrls.rdQLenPdf::5                       0                       # What read queue length does an incoming req see
system.mem_ctrls.rdQLenPdf::6                       0                       # What read queue length does an incoming req see
system.mem_ctrls.rdQLenPdf::7                       0                       # What read queue length does an incoming req see
system.mem_ctrls.rdQLenPdf::8                       0                       # What read queue length does an incoming req see
system.mem_ctrls.rdQLenPdf::9                       0                       # What read queue length does an incoming req see
system.mem_ctrls.rdQLenPdf::10                      0                       # What read queue length does an incoming req see
system.mem_ctrls.rdQLenPdf::11                      0                       # What read queue length does an incoming req see
system.mem_ctrls.rdQLenPdf::12                      0                       # What read queue length does an incoming req see
system.mem_ctrls.rdQLenPdf::13                      0                       # What read queue length does an incoming req see
system.mem_ctrls.rdQLenPdf::14                      0                       # What read queue length does an incoming req see
system.mem_ctrls.rdQLenPdf::15                      0                       # What read queue length does an incoming req see
system.mem_ctrls.rdQLenPdf::16                      0                       # What read queue length does an incoming req see
system.mem_ctrls.rdQLenPdf::17                      0                       # What read queue length does an incoming req see
system.mem_ctrls.rdQLenPdf::18                      0                       # What read queue length does an incoming req see
system.mem_ctrls.rdQLenPdf::19                      0                       # What read queue length does an incoming req see
system.mem_ctrls.rdQLenPdf::20                      0                       # What read queue length does an incoming req see
system.mem_ctrls.rdQLenPdf::21                      0                       # What read queue length does an incoming req see
system.mem_ctrls.rdQLenPdf::22                      0                       # What read queue length does an incoming req see
system.mem_ctrls.rdQLenPdf::23                      0                       # What read queue length does an incoming req see
system.mem_ctrls.rdQLenPdf::24                      0                       # What read queue length does an incoming req see
system.mem_ctrls.rdQLenPdf::25                      0                       # What read queue length does an incoming req see
system.mem_ctrls.rdQLenPdf::26                      0                       # What read queue length does an incoming req see
system.mem_ctrls.rdQLenPdf::27                      0                       # What read queue length does an incoming req see
system.mem_ctrls.rdQLenPdf::28                      0                       # What read queue length does an incoming req see
system.mem_ctrls.rdQLenPdf::29                      0                       # What read queue length does an incoming req see
system.mem_ctrls.rdQLenPdf::30                      0                       # What read queue length does an incoming req see
system.mem_ctrls.rdQLenPdf::31                      0                       # What read queue length does an incoming req see
system.mem_ctrls.wrQLenPdf::0                       1                       # What write queue length does an incoming req see
system.mem_ctrls.wrQLenPdf::1                       1                       # What write queue length does an incoming req see
system.mem_ctrls.wrQLenPdf::2                       1                       # What write queue length does an incoming req see
system.mem_ctrls.wrQLenPdf::3                       1                       # What write queue length does an incoming req see
system.mem_ctrls.wrQLenPdf::4                       1                       # What write queue length does an incoming req see
system.mem_ctrls.wrQLenPdf::5                       1                       # What write queue length does an incoming req see
system.mem_ctrls.wrQLenPdf::6                       1                       # What write queue length does an incoming req see
system.mem_ctrls.wrQLenPdf::7                       1                       # What write queue length does an incoming req see
system.mem_ctrls.wrQLenPdf::8                       1                       # What write queue length does an incoming req see
system.mem_ctrls.wrQLenPdf::9                       1                       # What write queue length does an incoming req see
system.mem_ctrls.wrQLenPdf::10                      1                       # What write queue length does an incoming req see
system.mem_ctrls.wrQLenPdf::11                      1                       # What write queue length does an incoming req see
system.mem_ctrls.wrQLenPdf::12                      1                       # What write queue length does an incoming req see
system.mem_ctrls.wrQLenPdf::13                      1                       # What write queue length does an incoming req see
system.mem_ctrls.wrQLenPdf::14                      1                       # What write queue length does an incoming req see
system.mem_ctrls.wrQLenPdf::15                   1129                       # What write queue length does an incoming req see
system.mem_ctrls.wrQLenPdf::16                   1136                       # What write queue length does an incoming req see
system.mem_ctrls.wrQLenPdf::17                   1352                       # What write queue length does an incoming req see
system.mem_ctrls.wrQLenPdf::18                   1358                       # What write queue length does an incoming req see
system.mem_ctrls.wrQLenPdf::19                   1361                       # What write queue length does an incoming req see
system.mem_ctrls.wrQLenPdf::20                   1356                       # What write queue length does an incoming req see
system.mem_ctrls.wrQLenPdf::21                   1358                       # What write queue length does an incoming req see
system.mem_ctrls.wrQLenPdf::22                   1358                       # What write queue length does an incoming req see
system.mem_ctrls.wrQLenPdf::23                   1356                       # What write queue length does an incoming req see
system.mem_ctrls.wrQLenPdf::24                   1356                       # What write queue length does an incoming req see
system.mem_ctrls.wrQLenPdf::25                   1356                       # What write queue length does an incoming req see
system.mem_ctrls.wrQLenPdf::26                   1357                       # What write queue length does an incoming req see
system.mem_ctrls.wrQLenPdf::27                   1357                       # What write queue length does an incoming req see
system.mem_ctrls.wrQLenPdf::28                   1356                       # What write queue length does an incoming req see
system.mem_ctrls.wrQLenPdf::29                   1356                       # What write queue length does an incoming req see
system.mem_ctrls.wrQLenPdf::30                   1356                       # What write queue length does an incoming req see
system.mem_ctrls.wrQLenPdf::31                   1357                       # What write queue length does an incoming req see
system.mem_ctrls.wrQLenPdf::32                   1356                       # What write queue length does an incoming req see
system.mem_ctrls.wrQLenPdf::33                      1                       # What write queue length does an incoming req see
system.mem_ctrls.wrQLenPdf::34                      0                       # What write queue length does an incoming req see
system.mem_ctrls.wrQLenPdf::35                      0                       # What write queue length does an incoming req see
system.mem_ctrls.wrQLenPdf::36                      0                       # What write queue length does an incoming req see
system.mem_ctrls.wrQLenPdf::37                      0                       # What write queue length does an incoming req see
system.mem_ctrls.wrQLenPdf::38                      0                       # What write queue length does an incoming req see
system.mem_ctrls.wrQLenPdf::39                      0                       # What write queue length does an incoming req see
system.mem_ctrls.wrQLenPdf::40                      0                       # What write queue length does an incoming req see
system.mem_ctrls.wrQLenPdf::41                      0                       # What write queue length does an incoming req see
system.mem_ctrls.wrQLenPdf::42                      0                       # What write queue length does an incoming req see
system.mem_ctrls.wrQLenPdf::43                      0                       # What write queue length does an incoming req see
system.mem_ctrls.wrQLenPdf::44                      0                       # What write queue length does an incoming req see
system.mem_ctrls.wrQLenPdf::45                      0                       # What write queue length does an incoming req see
system.mem_ctrls.wrQLenPdf::46                      0                       # What write queue length does an incoming req see
system.mem_ctrls.wrQLenPdf::47                      0                       # What write queue length does an incoming req see
system.mem_ctrls.wrQLenPdf::48                      0                       # What write queue length does an incoming req see
system.mem_ctrls.wrQLenPdf::49                      0                       # What write queue length does an incoming req see
system.mem_ctrls.wrQLenPdf::50                      0                       # What write queue length does an incoming req see
system.mem_ctrls.wrQLenPdf::51                      0                       # What write queue length does an incoming req see
system.mem_ctrls.wrQLenPdf::52                      0                       # What write queue length does an incoming req see
system.mem_ctrls.wrQLenPdf::53                      0                       # What write queue length does an incoming req see
system.mem_ctrls.wrQLenPdf::54                      0                       # What write queue length does an incoming req see
system.mem_ctrls.wrQLenPdf::55                      0                       # What write queue length does an incoming req see
system.mem_ctrls.wrQLenPdf::56                      0                       # What write queue length does an incoming req see
system.mem_ctrls.wrQLenPdf::57                      0                       # What write queue length does an incoming req see
system.mem_ctrls.wrQLenPdf::58                      0                       # What write queue length does an incoming req see
system.mem_ctrls.wrQLenPdf::59                      0                       # What write queue length does an incoming req see
system.mem_ctrls.wrQLenPdf::60                      0                       # What write queue length does an incoming req see
system.mem_ctrls.wrQLenPdf::61                      0                       # What write queue length does an incoming req see
system.mem_ctrls.wrQLenPdf::62                      0                       # What write queue length does an incoming req see
system.mem_ctrls.wrQLenPdf::63                      0                       # What write queue length does an incoming req see
system.mem_ctrls.bytesPerActivate::samples        59480                       # Bytes accessed per row activation
system.mem_ctrls.bytesPerActivate::mean    393.442905                       # Bytes accessed per row activation
system.mem_ctrls.bytesPerActivate::gmean   236.164598                       # Bytes accessed per row activation
system.mem_ctrls.bytesPerActivate::stdev   367.664572                       # Bytes accessed per row activation
system.mem_ctrls.bytesPerActivate::0-127        15784     26.54%     26.54% # Bytes accessed per row activation
system.mem_ctrls.bytesPerActivate::128-255        14750     24.80%     51.33% # Bytes accessed per row activation
system.mem_ctrls.bytesPerActivate::256-383         6982     11.74%     63.07% # Bytes accessed per row activation
system.mem_ctrls.bytesPerActivate::384-511         2717      4.57%     67.64% # Bytes accessed per row activation
system.mem_ctrls.bytesPerActivate::512-639         2309      3.88%     71.52% # Bytes accessed per row activation
system.mem_ctrls.bytesPerActivate::640-767         2228      3.75%     75.27% # Bytes accessed per row activation
system.mem_ctrls.bytesPerActivate::768-895         2347      3.95%     79.21% # Bytes accessed per row activation
system.mem_ctrls.bytesPerActivate::896-1023         1865      3.14%     82.35% # Bytes accessed per row activation
system.mem_ctrls.bytesPerActivate::1024-1151        10498     17.65%    100.00% # Bytes accessed per row activation
system.mem_ctrls.bytesPerActivate::total        59480                       # Bytes accessed per row activation
system.mem_ctrls.rdPerTurnAround::samples         1356                       # Reads before turning the bus around for writes
system.mem_ctrls.rdPerTurnAround::mean     251.924041                       # Reads before turning the bus around for writes
system.mem_ctrls.rdPerTurnAround::stdev    252.320105                       # Reads before turning the bus around for writes
system.mem_ctrls.rdPerTurnAround::0-127           552     40.71%     40.71% # Reads before turning the bus around for writes
system.mem_ctrls.rdPerTurnAround::128-255          249     18.36%     59.07% # Reads before turning the bus around for writes
system.mem_ctrls.rdPerTurnAround::256-383          271     19.99%     79.06% # Reads before turning the bus around for writes
system.mem_ctrls.rdPerTurnAround::384-511          159     11.73%     90.78% # Reads before turning the bus around for writes
system.mem_ctrls.rdPerTurnAround::512-639           59      4.35%     95.13% # Reads before turning the bus around for writes
system.mem_ctrls.rdPerTurnAround::640-767           18      1.33%     96.46% # Reads before turning the bus around for writes
system.mem_ctrls.rdPerTurnAround::768-895           17      1.25%     97.71% # Reads before turning the bus around for writes
system.mem_ctrls.rdPerTurnAround::896-1023            8      0.59%     98.30% # Reads before turning the bus around for writes
system.mem_ctrls.rdPerTurnAround::1024-1151            7      0.52%     98.82% # Reads before turning the bus around for writes
system.mem_ctrls.rdPerTurnAround::1152-1279            6      0.44%     99.26% # Reads before turning the bus around for writes
system.mem_ctrls.rdPerTurnAround::1280-1407            3      0.22%     99.48% # Reads before turning the bus around for writes
system.mem_ctrls.rdPerTurnAround::1536-1663            1      0.07%     99.56% # Reads before turning the bus around for writes
system.mem_ctrls.rdPerTurnAround::1664-1791            2      0.15%     99.71% # Reads before turning the bus around for writes
system.mem_ctrls.rdPerTurnAround::1792-1919            1      0.07%     99.78% # Reads before turning the bus around for writes
system.mem_ctrls.rdPerTurnAround::2176-2303            1      0.07%     99.85% # Reads before turning the bus around for writes
system.mem_ctrls.rdPerTurnAround::2432-2559            1      0.07%     99.93% # Reads before turning the bus around for writes
system.mem_ctrls.rdPerTurnAround::2944-3071            1      0.07%    100.00% # Reads before turning the bus around for writes
system.mem_ctrls.rdPerTurnAround::total          1356                       # Reads before turning the bus around for writes
system.mem_ctrls.wrPerTurnAround::samples         1356                       # Writes before turning the bus around for reads
system.mem_ctrls.wrPerTurnAround::mean      17.675516                       # Writes before turning the bus around for reads
system.mem_ctrls.wrPerTurnAround::gmean     17.658638                       # Writes before turning the bus around for reads
system.mem_ctrls.wrPerTurnAround::stdev      0.753456                       # Writes before turning the bus around for reads
system.mem_ctrls.wrPerTurnAround::16              224     16.52%     16.52% # Writes before turning the bus around for reads
system.mem_ctrls.wrPerTurnAround::17                3      0.22%     16.74% # Writes before turning the bus around for reads
system.mem_ctrls.wrPerTurnAround::18             1119     82.52%     99.26% # Writes before turning the bus around for reads
system.mem_ctrls.wrPerTurnAround::19                9      0.66%     99.93% # Writes before turning the bus around for reads
system.mem_ctrls.wrPerTurnAround::20                1      0.07%    100.00% # Writes before turning the bus around for reads
system.mem_ctrls.wrPerTurnAround::total          1356                       # Writes before turning the bus around for reads
system.mem_ctrls.masterReadBytes::.cpu.inst       123664                       # Per-master bytes read from memory
system.mem_ctrls.masterReadBytes::.cpu.data      5343744                       # Per-master bytes read from memory
system.mem_ctrls.masterWriteBytes::.writebacks       383488                       # Per-master bytes write to memory
system.mem_ctrls.masterReadRate::.cpu.inst 535539.131178572308                       # Per-master bytes read from memory rate (Bytes/sec)
system.mem_ctrls.masterReadRate::.cpu.data 23141609.676225163043                       # Per-master bytes read from memory rate (Bytes/sec)
system.mem_ctrls.masterWriteRate::.writebacks 1660732.552217365708                       # Per-master bytes write to memory rate (Bytes/sec)
system.mem_ctrls.masterReadAccesses::.cpu.inst         7729                       # Per-master read serviced memory accesses
system.mem_ctrls.masterReadAccesses::.cpu.data       338512                       # Per-master read serviced memory accesses
system.mem_ctrls.masterWriteAccesses::.writebacks        31521                       # Per-master write serviced memory accesses
system.mem_ctrls.masterReadTotalLat::.cpu.inst    248210250                       # Per-master read total memory access latency
system.mem_ctrls.masterReadTotalLat::.cpu.data  15253380500                       # Per-master read total memory access latency
system.mem_ctrls.masterWriteTotalLat::.writebacks 5529429306250                       # Per-master write total memory access latency
system.mem_ctrls.masterReadAvgLat::.cpu.inst     32114.15                       # Per-master read average memory access latency
system.mem_ctrls.masterReadAvgLat::.cpu.data     45060.09                       # Per-master read average memory access latency
system.mem_ctrls.masterWriteAvgLat::.writebacks 175420491.30                       # Per-master write average memory access latency
system.mem_ctrls.totQLat                   9094472000                       # Total ticks spent queuing
system.mem_ctrls.totMemAccLat             15501590750                       # Total ticks spent from burst creation until serviced by the DRAM
system.mem_ctrls.totBusLat                 1708565000                       # Total ticks spent in databus transfers
system.mem_ctrls.avgQLat                     26614.36                       # Average queueing delay per DRAM burst
system.mem_ctrls.avgBusLat                    5000.00                       # Average bus latency per DRAM burst
system.mem_ctrls.avgMemAccLat                45364.36                       # Average memory access latency per DRAM burst
system.mem_ctrls.avgRdBW                        94.71                       # Average DRAM read bandwidth in MiByte/s
system.mem_ctrls.avgWrBW                         6.64                       # Average achieved write bandwidth in MiByte/s
system.mem_ctrls.avgRdBWSys                     23.99                       # Average system read bandwidth in MiByte/s
system.mem_ctrls.avgWrBWSys                      2.18                       # Average system write bandwidth in MiByte/s
system.mem_ctrls.peakBW                      12800.00                       # Theoretical peak bandwidth in MiByte/s
system.mem_ctrls.busUtil                         0.79                       # Data bus utilization in percentage
system.mem_ctrls.busUtilRead                     0.74                       # Data bus utilization in percentage for reads
system.mem_ctrls.busUtilWrite                    0.05                       # Data bus utilization in percentage for writes
system.mem_ctrls.avgRdQLen                       1.00                       # Average read queue length when enqueuing
system.mem_ctrls.avgWrQLen                      24.84                       # Average write queue length when enqueuing
system.mem_ctrls.readRowHits                   284424                       # Number of row buffer hits during reads
system.mem_ctrls.writeRowHits                   21772                       # Number of row buffer hits during writes
system.mem_ctrls.readRowHitRate                 83.23                       # Row buffer hit rate for reads
system.mem_ctrls.writeRowHitRate                90.77                       # Row buffer hit rate for writes
system.mem_ctrls.avgGap                     611270.82                       # Average gap between requests
system.mem_ctrls.pageHitRate                    83.73                       # Row buffer hit rate, read and write combined
system.mem_ctrls_0.actEnergy                228001620                       # Energy for activate commands per rank (pJ)
system.mem_ctrls_0.preEnergy                121170555                       # Energy for precharge commands per rank (pJ)
system.mem_ctrls_0.readEnergy               861712320                       # Energy for read commands per rank (pJ)
system.mem_ctrls_0.writeEnergy              120112200                       # Energy for write commands per rank (pJ)
system.mem_ctrls_0.refreshEnergy         15399190560.000002                       # Energy for refresh commands per rank (pJ)
system.mem_ctrls_0.actBackEnergy           5640922350                       # Energy for active background per rank (pJ)
system.mem_ctrls_0.preBackEnergy            833703360                       # Energy for precharge background per rank (pJ)
system.mem_ctrls_0.actPowerDownEnergy     48401257020                       # Energy for active power-down per rank (pJ)
system.mem_ctrls_0.prePowerDownEnergy     29110752960                       # Energy for precharge power-down per rank (pJ)
system.mem_ctrls_0.selfRefreshEnergy      11194001040                       # Energy for self refresh per rank (pJ)
system.mem_ctrls_0.totalEnergy           111934037235                       # Total energy per rank (pJ)
system.mem_ctrls_0.averagePower            484.741372                       # Core power per rank (mW)
system.mem_ctrls_0.totalIdleTime         216321184500                       # Total Idle time Per DRAM Rank
system.mem_ctrls_0.memoryStateTime::IDLE   1590263500                       # Time in different power states
system.mem_ctrls_0.memoryStateTime::REF    6514040000                       # Time in different power states
system.mem_ctrls_0.memoryStateTime::SREF  34369393250                       # Time in different power states
system.mem_ctrls_0.memoryStateTime::PRE_PDN  75809376250                       # Time in different power states
system.mem_ctrls_0.memoryStateTime::ACT    6489014750                       # Time in different power states
system.mem_ctrls_0.memoryStateTime::ACT_PDN 106142877750                       # Time in different power states
system.mem_ctrls_1.actEnergy                196721280                       # Energy for activate commands per rank (pJ)
system.mem_ctrls_1.preEnergy                104556045                       # Energy for precharge commands per rank (pJ)
system.mem_ctrls_1.readEnergy              1578118500                       # Energy for read commands per rank (pJ)
system.mem_ctrls_1.writeEnergy                5000760                       # Energy for write commands per rank (pJ)
system.mem_ctrls_1.refreshEnergy         13340146560.000002                       # Energy for refresh commands per rank (pJ)
system.mem_ctrls_1.actBackEnergy           5181932700                       # Energy for active background per rank (pJ)
system.mem_ctrls_1.preBackEnergy            647802720                       # Energy for precharge background per rank (pJ)
system.mem_ctrls_1.actPowerDownEnergy     53021354400                       # Energy for active power-down per rank (pJ)
system.mem_ctrls_1.prePowerDownEnergy     15578908320                       # Energy for precharge power-down per rank (pJ)
system.mem_ctrls_1.selfRefreshEnergy      16658607780                       # Energy for self refresh per rank (pJ)
system.mem_ctrls_1.totalEnergy           106362077655                       # Total energy per rank (pJ)
system.mem_ctrls_1.averagePower            460.611452                       # Core power per rank (mW)
system.mem_ctrls_1.totalIdleTime         217754179750                       # Total Idle time Per DRAM Rank
system.mem_ctrls_1.memoryStateTime::IDLE   1155769000                       # Time in different power states
system.mem_ctrls_1.memoryStateTime::REF    5643040000                       # Time in different power states
system.mem_ctrls_1.memoryStateTime::SREF  60909865250                       # Time in different power states
system.mem_ctrls_1.memoryStateTime::PRE_PDN  40570028250                       # Time in different power states
system.mem_ctrls_1.memoryStateTime::ACT    6361935000                       # Time in different power states
system.mem_ctrls_1.memoryStateTime::ACT_PDN 116274328000                       # Time in different power states
system.pwrStateResidencyTicks::UNDEFINED 230914965500                       # Cumulative time (in ticks) in various power states
system.cpu_voltage_domain.voltage                   1                       # Voltage in Volts
system.cpu_clk_domain.clock                       500                       # Clock period in ticks
system.cpu.dtb.fetch_hits                           0                       # ITB hits
system.cpu.dtb.fetch_misses                         0                       # ITB misses
system.cpu.dtb.fetch_acv                            0                       # ITB acv
system.cpu.dtb.fetch_accesses                       0                       # ITB accesses
system.cpu.dtb.read_hits                     21013238                       # DTB read hits
system.cpu.dtb.read_misses                          9                       # DTB read misses
system.cpu.dtb.read_acv                             0                       # DTB read access violations
system.cpu.dtb.read_accesses                 21013247                       # DTB read accesses
system.cpu.dtb.write_hits                     4928581                       # DTB write hits
system.cpu.dtb.write_misses                        11                       # DTB write misses
system.cpu.dtb.write_acv                            0                       # DTB write access violations
system.cpu.dtb.write_accesses                 4928592                       # DTB write accesses
system.cpu.dtb.data_hits                     25941819                       # DTB hits
system.cpu.dtb.data_misses                         20                       # DTB misses
system.cpu.dtb.data_acv                             0                       # DTB access violations
system.cpu.dtb.data_accesses                 25941839                       # DTB accesses
system.cpu.itb.fetch_hits                    61094680                       # ITB hits
system.cpu.itb.fetch_misses                        26                       # ITB misses
system.cpu.itb.fetch_acv                            0                       # ITB acv
system.cpu.itb.fetch_accesses                61094706                       # ITB accesses
system.cpu.itb.read_hits                            0                       # DTB read hits
system.cpu.itb.read_misses                          0                       # DTB read misses
system.cpu.itb.read_acv                             0                       # DTB read access violations
system.cpu.itb.read_accesses                        0                       # DTB read accesses
system.cpu.itb.write_hits                           0                       # DTB write hits
system.cpu.itb.write_misses                         0                       # DTB write misses
system.cpu.itb.write_acv                            0                       # DTB write access violations
system.cpu.itb.write_accesses                       0                       # DTB write accesses
system.cpu.itb.data_hits                            0                       # DTB hits
system.cpu.itb.data_misses                          0                       # DTB misses
system.cpu.itb.data_acv                             0                       # DTB access violations
system.cpu.itb.data_accesses                        0                       # DTB accesses
system.cpu.workload.numSyscalls                   239                       # Number of system calls
system.cpu.pwrStateResidencyTicks::ON    230914965500                       # Cumulative time (in ticks) in various power states
system.cpu.numCycles                        461829931                       # number of cpu cycles simulated
system.cpu.numWorkItemsStarted                      0                       # number of work items this cpu started
system.cpu.numWorkItemsCompleted                    0                       # number of work items this cpu completed
system.cpu.committedInsts                    61094659                       # Number of instructions committed
system.cpu.committedOps                      61094659                       # Number of ops (including micro ops) committed
system.cpu.num_int_alu_accesses              60434493                       # Number of integer alu accesses
system.cpu.num_fp_alu_accesses                  41255                       # Number of float alu accesses
system.cpu.num_vec_alu_accesses                     0                       # Number of vector alu accesses
system.cpu.num_func_calls                      266608                       # number of times a function call or return occured
system.cpu.num_conditional_control_insts      9542141                       # number of instructions that are conditional controls
system.cpu.num_int_insts                     60434493                       # number of integer instructions
system.cpu.num_fp_insts                         41255                       # number of float instructions
system.cpu.num_vec_insts                            0                       # number of vector instructions
system.cpu.num_int_register_reads            79505961                       # number of times the integer registers were read
system.cpu.num_int_register_writes           45947431                       # number of times the integer registers were written
system.cpu.num_fp_register_reads                41243                       # number of times the floating registers were read
system.cpu.num_fp_register_writes                  22                       # number of times the floating registers were written
system.cpu.num_vec_register_reads                   0                       # number of times the vector registers were read
system.cpu.num_vec_register_writes                  0                       # number of times the vector registers were written
system.cpu.num_mem_refs                      25941839                       # number of memory refs
system.cpu.num_load_insts                    21013247                       # Number of load instructions
system.cpu.num_store_insts                    4928592                       # Number of store instructions
system.cpu.num_idle_cycles                          0                       # Number of idle cycles
system.cpu.num_busy_cycles                  461829931                       # Number of busy cycles
system.cpu.not_idle_fraction                        1                       # Percentage of non-idle cycles
system.cpu.idle_fraction                            0                       # Percentage of idle cycles
system.cpu.Branches                          10046583                       # Number of branches fetched
system.cpu.op_class::No_OpClass                305112      0.50%      0.50% # Class of executed instruction
system.cpu.op_class::IntAlu                  34747394     56.87%     57.37% # Class of executed instruction
system.cpu.op_class::IntMult                    19467      0.03%     57.41% # Class of executed instruction
system.cpu.op_class::IntDiv                         0      0.00%     57.41% # Class of executed instruction
system.cpu.op_class::FloatAdd                      12      0.00%     57.41% # Class of executed instruction
system.cpu.op_class::FloatCmp                       0      0.00%     57.41% # Class of executed instruction
system.cpu.op_class::FloatCvt                       8      0.00%     57.41% # Class of executed instruction
system.cpu.op_class::FloatMult                      0      0.00%     57.41% # Class of executed instruction
system.cpu.op_class::FloatMultAcc                   0      0.00%     57.41% # Class of executed instruction
system.cpu.op_class::FloatDiv                       2      0.00%     57.41% # Class of executed instruction
system.cpu.op_class::FloatMisc                      0      0.00%     57.41% # Class of executed instruction
system.cpu.op_class::FloatSqrt                      0      0.00%     57.41% # Class of executed instruction
system.cpu.op_class::SimdAdd                        0      0.00%     57.41% # Class of executed instruction
system.cpu.op_class::SimdAddAcc                     0      0.00%     57.41% # Class of executed instruction
system.cpu.op_class::SimdAlu                        0      0.00%     57.41% # Class of executed instruction
system.cpu.op_class::SimdCmp                        0      0.00%     57.41% # Class of executed instruction
system.cpu.op_class::SimdCvt                        0      0.00%     57.41% # Class of executed instruction
system.cpu.op_class::SimdMisc                       0      0.00%     57.41% # Class of executed instruction
system.cpu.op_class::SimdMult                       0      0.00%     57.41% # Class of executed instruction
system.cpu.op_class::SimdMultAcc                    0      0.00%     57.41% # Class of executed instruction
system.cpu.op_class::SimdShift                      0      0.00%     57.41% # Class of executed instruction
system.cpu.op_class::SimdShiftAcc                   0      0.00%     57.41% # Class of executed instruction
system.cpu.op_class::SimdSqrt                       0      0.00%     57.41% # Class of executed instruction
system.cpu.op_class::SimdFloatAdd                   0      0.00%     57.41% # Class of executed instruction
system.cpu.op_class::SimdFloatAlu                   0      0.00%     57.41% # Class of executed instruction
system.cpu.op_class::SimdFloatCmp                   0      0.00%     57.41% # Class of executed instruction
system.cpu.op_class::SimdFloatCvt                   0      0.00%     57.41% # Class of executed instruction
system.cpu.op_class::SimdFloatDiv                   0      0.00%     57.41% # Class of executed instruction
system.cpu.op_class::SimdFloatMisc                  0      0.00%     57.41% # Class of executed instruction
system.cpu.op_class::SimdFloatMult                  0      0.00%     57.41% # Class of executed instruction
system.cpu.op_class::SimdFloatMultAcc               0      0.00%     57.41% # Class of executed instruction
system.cpu.op_class::SimdFloatSqrt                  0      0.00%     57.41% # Class of executed instruction
system.cpu.op_class::SimdAes                        0      0.00%     57.41% # Class of executed instruction
system.cpu.op_class::SimdAesMix                     0      0.00%     57.41% # Class of executed instruction
system.cpu.op_class::SimdSha1Hash                   0      0.00%     57.41% # Class of executed instruction
system.cpu.op_class::SimdSha1Hash2                  0      0.00%     57.41% # Class of executed instruction
system.cpu.op_class::SimdSha256Hash                 0      0.00%     57.41% # Class of executed instruction
system.cpu.op_class::SimdSha256Hash2                0      0.00%     57.41% # Class of executed instruction
system.cpu.op_class::SimdShaSigma2                  0      0.00%     57.41% # Class of executed instruction
system.cpu.op_class::SimdShaSigma3                  0      0.00%     57.41% # Class of executed instruction
system.cpu.op_class::MemRead                 21094085     34.53%     91.93% # Class of executed instruction
system.cpu.op_class::MemWrite                 4887366      8.00%     99.93% # Class of executed instruction
system.cpu.op_class::FloatMemRead                   6      0.00%     99.93% # Class of executed instruction
system.cpu.op_class::FloatMemWrite              41227      0.07%    100.00% # Class of executed instruction
system.cpu.op_class::IprAccess                      0      0.00%    100.00% # Class of executed instruction
system.cpu.op_class::InstPrefetch                   0      0.00%    100.00% # Class of executed instruction
system.cpu.op_class::total                   61094679                       # Class of executed instruction
system.cpu.dcache.tags.pwrStateResidencyTicks::UNDEFINED 230914965500                       # Cumulative time (in ticks) in various power states
system.cpu.dcache.tags.tagsinuse            63.996604                       # Cycle average of tags in use
system.cpu.dcache.tags.total_refs            25941819                       # Total number of references to valid blocks.
system.cpu.dcache.tags.sampled_refs           7209972                       # Sample count of references to valid blocks.
system.cpu.dcache.tags.avg_refs              3.598047                       # Average number of references to valid blocks.
system.cpu.dcache.tags.warmup_cycle            262500                       # Cycle when the warmup percentage was hit.
system.cpu.dcache.tags.occ_blocks::.cpu.data    63.996604                       # Average occupied blocks per requestor
system.cpu.dcache.tags.occ_percent::.cpu.data     0.999947                       # Average percentage of cache occupancy
system.cpu.dcache.tags.occ_percent::total     0.999947                       # Average percentage of cache occupancy
system.cpu.dcache.tags.occ_task_id_blocks::1024           64                       # Occupied blocks per task id
system.cpu.dcache.tags.age_task_id_blocks_1024::0           23                       # Occupied blocks per task id
system.cpu.dcache.tags.age_task_id_blocks_1024::1           41                       # Occupied blocks per task id
system.cpu.dcache.tags.occ_task_id_percent::1024            1                       # Percentage of cache occupancy per task id
system.cpu.dcache.tags.tag_accesses          33151791                       # Number of tag accesses
system.cpu.dcache.tags.data_accesses         33151791                       # Number of data accesses
system.cpu.dcache.pwrStateResidencyTicks::UNDEFINED 230914965500                       # Cumulative time (in ticks) in various power states
system.cpu.dcache.ReadReq_hits::.cpu.data     15662420                       # number of ReadReq hits
system.cpu.dcache.ReadReq_hits::total        15662420                       # number of ReadReq hits
system.cpu.dcache.WriteReq_hits::.cpu.data      2934298                       # number of WriteReq hits
system.cpu.dcache.WriteReq_hits::total        2934298                       # number of WriteReq hits
system.cpu.dcache.LoadLockedReq_hits::.cpu.data        54285                       # number of LoadLockedReq hits
system.cpu.dcache.LoadLockedReq_hits::total        54285                       # number of LoadLockedReq hits
system.cpu.dcache.StoreCondReq_hits::.cpu.data        80844                       # number of StoreCondReq hits
system.cpu.dcache.StoreCondReq_hits::total        80844                       # number of StoreCondReq hits
system.cpu.dcache.demand_hits::.cpu.data     18596718                       # number of demand (read+write) hits
system.cpu.dcache.demand_hits::total         18596718                       # number of demand (read+write) hits
system.cpu.dcache.overall_hits::.cpu.data     18596718                       # number of overall hits
system.cpu.dcache.overall_hits::total        18596718                       # number of overall hits
system.cpu.dcache.ReadReq_misses::.cpu.data      5269974                       # number of ReadReq misses
system.cpu.dcache.ReadReq_misses::total       5269974                       # number of ReadReq misses
system.cpu.dcache.WriteReq_misses::.cpu.data      1913439                       # number of WriteReq misses
system.cpu.dcache.WriteReq_misses::total      1913439                       # number of WriteReq misses
system.cpu.dcache.LoadLockedReq_misses::.cpu.data        26559                       # number of LoadLockedReq misses
system.cpu.dcache.LoadLockedReq_misses::total        26559                       # number of LoadLockedReq misses
system.cpu.dcache.demand_misses::.cpu.data      7183413                       # number of demand (read+write) misses
system.cpu.dcache.demand_misses::total        7183413                       # number of demand (read+write) misses
system.cpu.dcache.overall_misses::.cpu.data      7183413                       # number of overall misses
system.cpu.dcache.overall_misses::total       7183413                       # number of overall misses
system.cpu.dcache.ReadReq_miss_latency::.cpu.data  95848520000                       # number of ReadReq miss cycles
system.cpu.dcache.ReadReq_miss_latency::total  95848520000                       # number of ReadReq miss cycles
system.cpu.dcache.WriteReq_miss_latency::.cpu.data  26376665000                       # number of WriteReq miss cycles
system.cpu.dcache.WriteReq_miss_latency::total  26376665000                       # number of WriteReq miss cycles
system.cpu.dcache.LoadLockedReq_miss_latency::.cpu.data    346841000                       # number of LoadLockedReq miss cycles
system.cpu.dcache.LoadLockedReq_miss_latency::total    346841000                       # number of LoadLockedReq miss cycles
system.cpu.dcache.demand_miss_latency::.cpu.data 122225185000                       # number of demand (read+write) miss cycles
system.cpu.dcache.demand_miss_latency::total 122225185000                       # number of demand (read+write) miss cycles
system.cpu.dcache.overall_miss_latency::.cpu.data 122225185000                       # number of overall miss cycles
system.cpu.dcache.overall_miss_latency::total 122225185000                       # number of overall miss cycles
system.cpu.dcache.ReadReq_accesses::.cpu.data     20932394                       # number of ReadReq accesses(hits+misses)
system.cpu.dcache.ReadReq_accesses::total     20932394                       # number of ReadReq accesses(hits+misses)
system.cpu.dcache.WriteReq_accesses::.cpu.data      4847737                       # number of WriteReq accesses(hits+misses)
system.cpu.dcache.WriteReq_accesses::total      4847737                       # number of WriteReq accesses(hits+misses)
system.cpu.dcache.LoadLockedReq_accesses::.cpu.data        80844                       # number of LoadLockedReq accesses(hits+misses)
system.cpu.dcache.LoadLockedReq_accesses::total        80844                       # number of LoadLockedReq accesses(hits+misses)
system.cpu.dcache.StoreCondReq_accesses::.cpu.data        80844                       # number of StoreCondReq accesses(hits+misses)
system.cpu.dcache.StoreCondReq_accesses::total        80844                       # number of StoreCondReq accesses(hits+misses)
system.cpu.dcache.demand_accesses::.cpu.data     25780131                       # number of demand (read+write) accesses
system.cpu.dcache.demand_accesses::total     25780131                       # number of demand (read+write) accesses
system.cpu.dcache.overall_accesses::.cpu.data     25780131                       # number of overall (read+write) accesses
system.cpu.dcache.overall_accesses::total     25780131                       # number of overall (read+write) accesses
system.cpu.dcache.ReadReq_miss_rate::.cpu.data     0.251762                       # miss rate for ReadReq accesses
system.cpu.dcache.ReadReq_miss_rate::total     0.251762                       # miss rate for ReadReq accesses
system.cpu.dcache.WriteReq_miss_rate::.cpu.data     0.394708                       # miss rate for WriteReq accesses
system.cpu.dcache.WriteReq_miss_rate::total     0.394708                       # miss rate for WriteReq accesses
system.cpu.dcache.LoadLockedReq_miss_rate::.cpu.data     0.328522                       # miss rate for LoadLockedReq accesses
system.cpu.dcache.LoadLockedReq_miss_rate::total     0.328522                       # miss rate for LoadLockedReq accesses
system.cpu.dcache.demand_miss_rate::.cpu.data     0.278641                       # miss rate for demand accesses
system.cpu.dcache.demand_miss_rate::total     0.278641                       # miss rate for demand accesses
system.cpu.dcache.overall_miss_rate::.cpu.data     0.278641                       # miss rate for overall accesses
system.cpu.dcache.overall_miss_rate::total     0.278641                       # miss rate for overall accesses
system.cpu.dcache.ReadReq_avg_miss_latency::.cpu.data 18187.664683                       # average ReadReq miss latency
system.cpu.dcache.ReadReq_avg_miss_latency::total 18187.664683                       # average ReadReq miss latency
system.cpu.dcache.WriteReq_avg_miss_latency::.cpu.data 13784.952120                       # average WriteReq miss latency
system.cpu.dcache.WriteReq_avg_miss_latency::total 13784.952120                       # average WriteReq miss latency
system.cpu.dcache.LoadLockedReq_avg_miss_latency::.cpu.data 13059.264280                       # average LoadLockedReq miss latency
system.cpu.dcache.LoadLockedReq_avg_miss_latency::total 13059.264280                       # average LoadLockedReq miss latency
system.cpu.dcache.demand_avg_miss_latency::.cpu.data 17014.918257                       # average overall miss latency
system.cpu.dcache.demand_avg_miss_latency::total 17014.918257                       # average overall miss latency
system.cpu.dcache.overall_avg_miss_latency::.cpu.data 17014.918257                       # average overall miss latency
system.cpu.dcache.overall_avg_miss_latency::total 17014.918257                       # average overall miss latency
system.cpu.dcache.blocked_cycles::no_mshrs            0                       # number of cycles access was blocked
system.cpu.dcache.blocked_cycles::no_targets            0                       # number of cycles access was blocked
system.cpu.dcache.blocked::no_mshrs                 0                       # number of cycles access was blocked
system.cpu.dcache.blocked::no_targets               0                       # number of cycles access was blocked
system.cpu.dcache.avg_blocked_cycles::no_mshrs          nan                       # average number of cycles each access was blocked
system.cpu.dcache.avg_blocked_cycles::no_targets          nan                       # average number of cycles each access was blocked
system.cpu.dcache.writebacks::.writebacks      4344702                       # number of writebacks
system.cpu.dcache.writebacks::total           4344702                       # number of writebacks
system.cpu.dcache.ReadReq_mshr_misses::.cpu.data      5269974                       # number of ReadReq MSHR misses
system.cpu.dcache.ReadReq_mshr_misses::total      5269974                       # number of ReadReq MSHR misses
system.cpu.dcache.WriteReq_mshr_misses::.cpu.data      1913439                       # number of WriteReq MSHR misses
system.cpu.dcache.WriteReq_mshr_misses::total      1913439                       # number of WriteReq MSHR misses
system.cpu.dcache.LoadLockedReq_mshr_misses::.cpu.data        26559                       # number of LoadLockedReq MSHR misses
system.cpu.dcache.LoadLockedReq_mshr_misses::total        26559                       # number of LoadLockedReq MSHR misses
system.cpu.dcache.demand_mshr_misses::.cpu.data      7183413                       # number of demand (read+write) MSHR misses
system.cpu.dcache.demand_mshr_misses::total      7183413                       # number of demand (read+write) MSHR misses
system.cpu.dcache.overall_mshr_misses::.cpu.data      7183413                       # number of overall MSHR misses
system.cpu.dcache.overall_mshr_misses::total      7183413                       # number of overall MSHR misses
system.cpu.dcache.ReadReq_mshr_miss_latency::.cpu.data  90578546000                       # number of ReadReq MSHR miss cycles
system.cpu.dcache.ReadReq_mshr_miss_latency::total  90578546000                       # number of ReadReq MSHR miss cycles
system.cpu.dcache.WriteReq_mshr_miss_latency::.cpu.data  24463226000                       # number of WriteReq MSHR miss cycles
system.cpu.dcache.WriteReq_mshr_miss_latency::total  24463226000                       # number of WriteReq MSHR miss cycles
system.cpu.dcache.LoadLockedReq_mshr_miss_latency::.cpu.data    320282000                       # number of LoadLockedReq MSHR miss cycles
system.cpu.dcache.LoadLockedReq_mshr_miss_latency::total    320282000                       # number of LoadLockedReq MSHR miss cycles
system.cpu.dcache.demand_mshr_miss_latency::.cpu.data 115041772000                       # number of demand (read+write) MSHR miss cycles
system.cpu.dcache.demand_mshr_miss_latency::total 115041772000                       # number of demand (read+write) MSHR miss cycles
system.cpu.dcache.overall_mshr_miss_latency::.cpu.data 115041772000                       # number of overall MSHR miss cycles
system.cpu.dcache.overall_mshr_miss_latency::total 115041772000                       # number of overall MSHR miss cycles
system.cpu.dcache.ReadReq_mshr_miss_rate::.cpu.data     0.251762                       # mshr miss rate for ReadReq accesses
system.cpu.dcache.ReadReq_mshr_miss_rate::total     0.251762                       # mshr miss rate for ReadReq accesses
system.cpu.dcache.WriteReq_mshr_miss_rate::.cpu.data     0.394708                       # mshr miss rate for WriteReq accesses
system.cpu.dcache.WriteReq_mshr_miss_rate::total     0.394708                       # mshr miss rate for WriteReq accesses
system.cpu.dcache.LoadLockedReq_mshr_miss_rate::.cpu.data     0.328522                       # mshr miss rate for LoadLockedReq accesses
system.cpu.dcache.LoadLockedReq_mshr_miss_rate::total     0.328522                       # mshr miss rate for LoadLockedReq accesses
system.cpu.dcache.demand_mshr_miss_rate::.cpu.data     0.278641                       # mshr miss rate for demand accesses
system.cpu.dcache.demand_mshr_miss_rate::total     0.278641                       # mshr miss rate for demand accesses
system.cpu.dcache.overall_mshr_miss_rate::.cpu.data     0.278641                       # mshr miss rate for overall accesses
system.cpu.dcache.overall_mshr_miss_rate::total     0.278641                       # mshr miss rate for overall accesses
system.cpu.dcache.ReadReq_avg_mshr_miss_latency::.cpu.data 17187.664683                       # average ReadReq mshr miss latency
system.cpu.dcache.ReadReq_avg_mshr_miss_latency::total 17187.664683                       # average ReadReq mshr miss latency
system.cpu.dcache.WriteReq_avg_mshr_miss_latency::.cpu.data 12784.952120                       # average WriteReq mshr miss latency
system.cpu.dcache.WriteReq_avg_mshr_miss_latency::total 12784.952120                       # average WriteReq mshr miss latency
system.cpu.dcache.LoadLockedReq_avg_mshr_miss_latency::.cpu.data 12059.264280                       # average LoadLockedReq mshr miss latency
system.cpu.dcache.LoadLockedReq_avg_mshr_miss_latency::total 12059.264280                       # average LoadLockedReq mshr miss latency
system.cpu.dcache.demand_avg_mshr_miss_latency::.cpu.data 16014.918257                       # average overall mshr miss latency
system.cpu.dcache.demand_avg_mshr_miss_latency::total 16014.918257                       # average overall mshr miss latency
system.cpu.dcache.overall_avg_mshr_miss_latency::.cpu.data 16014.918257                       # average overall mshr miss latency
system.cpu.dcache.overall_avg_mshr_miss_latency::total 16014.918257                       # average overall mshr miss latency
system.cpu.dcache.replacements                7209908                       # number of replacements
system.cpu.icache.tags.pwrStateResidencyTicks::UNDEFINED 230914965500                       # Cumulative time (in ticks) in various power states
system.cpu.icache.tags.tagsinuse           127.990865                       # Cycle average of tags in use
system.cpu.icache.tags.total_refs            61094680                       # Total number of references to valid blocks.
system.cpu.icache.tags.sampled_refs           2329735                       # Sample count of references to valid blocks.
system.cpu.icache.tags.avg_refs             26.223875                       # Average number of references to valid blocks.
system.cpu.icache.tags.warmup_cycle             87500                       # Cycle when the warmup percentage was hit.
system.cpu.icache.tags.occ_blocks::.cpu.inst   127.990865                       # Average occupied blocks per requestor
system.cpu.icache.tags.occ_percent::.cpu.inst     0.999929                       # Average percentage of cache occupancy
system.cpu.icache.tags.occ_percent::total     0.999929                       # Average percentage of cache occupancy
system.cpu.icache.tags.occ_task_id_blocks::1024          128                       # Occupied blocks per task id
system.cpu.icache.tags.age_task_id_blocks_1024::0           62                       # Occupied blocks per task id
system.cpu.icache.tags.age_task_id_blocks_1024::1           60                       # Occupied blocks per task id
system.cpu.icache.tags.age_task_id_blocks_1024::3            4                       # Occupied blocks per task id
system.cpu.icache.tags.age_task_id_blocks_1024::4            2                       # Occupied blocks per task id
system.cpu.icache.tags.occ_task_id_percent::1024            1                       # Percentage of cache occupancy per task id
system.cpu.icache.tags.tag_accesses          63424415                       # Number of tag accesses
system.cpu.icache.tags.data_accesses         63424415                       # Number of data accesses
system.cpu.icache.pwrStateResidencyTicks::UNDEFINED 230914965500                       # Cumulative time (in ticks) in various power states
system.cpu.icache.ReadReq_hits::.cpu.inst     58764945                       # number of ReadReq hits
system.cpu.icache.ReadReq_hits::total        58764945                       # number of ReadReq hits
system.cpu.icache.demand_hits::.cpu.inst     58764945                       # number of demand (read+write) hits
system.cpu.icache.demand_hits::total         58764945                       # number of demand (read+write) hits
system.cpu.icache.overall_hits::.cpu.inst     58764945                       # number of overall hits
system.cpu.icache.overall_hits::total        58764945                       # number of overall hits
system.cpu.icache.ReadReq_misses::.cpu.inst      2329735                       # number of ReadReq misses
system.cpu.icache.ReadReq_misses::total       2329735                       # number of ReadReq misses
system.cpu.icache.demand_misses::.cpu.inst      2329735                       # number of demand (read+write) misses
system.cpu.icache.demand_misses::total        2329735                       # number of demand (read+write) misses
system.cpu.icache.overall_misses::.cpu.inst      2329735                       # number of overall misses
system.cpu.icache.overall_misses::total       2329735                       # number of overall misses
system.cpu.icache.ReadReq_miss_latency::.cpu.inst  30846148500                       # number of ReadReq miss cycles
system.cpu.icache.ReadReq_miss_latency::total  30846148500                       # number of ReadReq miss cycles
system.cpu.icache.demand_miss_latency::.cpu.inst  30846148500                       # number of demand (read+write) miss cycles
system.cpu.icache.demand_miss_latency::total  30846148500                       # number of demand (read+write) miss cycles
system.cpu.icache.overall_miss_latency::.cpu.inst  30846148500                       # number of overall miss cycles
system.cpu.icache.overall_miss_latency::total  30846148500                       # number of overall miss cycles
system.cpu.icache.ReadReq_accesses::.cpu.inst     61094680                       # number of ReadReq accesses(hits+misses)
system.cpu.icache.ReadReq_accesses::total     61094680                       # number of ReadReq accesses(hits+misses)
system.cpu.icache.demand_accesses::.cpu.inst     61094680                       # number of demand (read+write) accesses
system.cpu.icache.demand_accesses::total     61094680                       # number of demand (read+write) accesses
system.cpu.icache.overall_accesses::.cpu.inst     61094680                       # number of overall (read+write) accesses
system.cpu.icache.overall_accesses::total     61094680                       # number of overall (read+write) accesses
system.cpu.icache.ReadReq_miss_rate::.cpu.inst     0.038133                       # miss rate for ReadReq accesses
system.cpu.icache.ReadReq_miss_rate::total     0.038133                       # miss rate for ReadReq accesses
system.cpu.icache.demand_miss_rate::.cpu.inst     0.038133                       # miss rate for demand accesses
system.cpu.icache.demand_miss_rate::total     0.038133                       # miss rate for demand accesses
system.cpu.icache.overall_miss_rate::.cpu.inst     0.038133                       # miss rate for overall accesses
system.cpu.icache.overall_miss_rate::total     0.038133                       # miss rate for overall accesses
system.cpu.icache.ReadReq_avg_miss_latency::.cpu.inst 13240.196203                       # average ReadReq miss latency
system.cpu.icache.ReadReq_avg_miss_latency::total 13240.196203                       # average ReadReq miss latency
system.cpu.icache.demand_avg_miss_latency::.cpu.inst 13240.196203                       # average overall miss latency
system.cpu.icache.demand_avg_miss_latency::total 13240.196203                       # average overall miss latency
system.cpu.icache.overall_avg_miss_latency::.cpu.inst 13240.196203                       # average overall miss latency
system.cpu.icache.overall_avg_miss_latency::total 13240.196203                       # average overall miss latency
system.cpu.icache.blocked_cycles::no_mshrs            0                       # number of cycles access was blocked
system.cpu.icache.blocked_cycles::no_targets            0                       # number of cycles access was blocked
system.cpu.icache.blocked::no_mshrs                 0                       # number of cycles access was blocked
system.cpu.icache.blocked::no_targets               0                       # number of cycles access was blocked
system.cpu.icache.avg_blocked_cycles::no_mshrs          nan                       # average number of cycles each access was blocked
system.cpu.icache.avg_blocked_cycles::no_targets          nan                       # average number of cycles each access was blocked
system.cpu.icache.writebacks::.writebacks      2329607                       # number of writebacks
system.cpu.icache.writebacks::total           2329607                       # number of writebacks
system.cpu.icache.ReadReq_mshr_misses::.cpu.inst      2329735                       # number of ReadReq MSHR misses
system.cpu.icache.ReadReq_mshr_misses::total      2329735                       # number of ReadReq MSHR misses
system.cpu.icache.demand_mshr_misses::.cpu.inst      2329735                       # number of demand (read+write) MSHR misses
system.cpu.icache.demand_mshr_misses::total      2329735                       # number of demand (read+write) MSHR misses
system.cpu.icache.overall_mshr_misses::.cpu.inst      2329735                       # number of overall MSHR misses
system.cpu.icache.overall_mshr_misses::total      2329735                       # number of overall MSHR misses
system.cpu.icache.ReadReq_mshr_miss_latency::.cpu.inst  28516413500                       # number of ReadReq MSHR miss cycles
system.cpu.icache.ReadReq_mshr_miss_latency::total  28516413500                       # number of ReadReq MSHR miss cycles
system.cpu.icache.demand_mshr_miss_latency::.cpu.inst  28516413500                       # number of demand (read+write) MSHR miss cycles
system.cpu.icache.demand_mshr_miss_latency::total  28516413500                       # number of demand (read+write) MSHR miss cycles
system.cpu.icache.overall_mshr_miss_latency::.cpu.inst  28516413500                       # number of overall MSHR miss cycles
system.cpu.icache.overall_mshr_miss_latency::total  28516413500                       # number of overall MSHR miss cycles
system.cpu.icache.ReadReq_mshr_miss_rate::.cpu.inst     0.038133                       # mshr miss rate for ReadReq accesses
system.cpu.icache.ReadReq_mshr_miss_rate::total     0.038133                       # mshr miss rate for ReadReq accesses
system.cpu.icache.demand_mshr_miss_rate::.cpu.inst     0.038133                       # mshr miss rate for demand accesses
system.cpu.icache.demand_mshr_miss_rate::total     0.038133                       # mshr miss rate for demand accesses
system.cpu.icache.overall_mshr_miss_rate::.cpu.inst     0.038133                       # mshr miss rate for overall accesses
system.cpu.icache.overall_mshr_miss_rate::total     0.038133                       # mshr miss rate for overall accesses
system.cpu.icache.ReadReq_avg_mshr_miss_latency::.cpu.inst 12240.196203                       # average ReadReq mshr miss latency
system.cpu.icache.ReadReq_avg_mshr_miss_latency::total 12240.196203                       # average ReadReq mshr miss latency
system.cpu.icache.demand_avg_mshr_miss_latency::.cpu.inst 12240.196203                       # average overall mshr miss latency
system.cpu.icache.demand_avg_mshr_miss_latency::total 12240.196203                       # average overall mshr miss latency
system.cpu.icache.overall_avg_mshr_miss_latency::.cpu.inst 12240.196203                       # average overall mshr miss latency
system.cpu.icache.overall_avg_mshr_miss_latency::total 12240.196203                       # average overall mshr miss latency
system.cpu.icache.replacements                2329607                       # number of replacements
system.l2.tags.pwrStateResidencyTicks::UNDEFINED 230914965500                       # Cumulative time (in ticks) in various power states
system.l2.tags.tagsinuse                  1023.788301                       # Cycle average of tags in use
system.l2.tags.total_refs                    19079222                       # Total number of references to valid blocks.
system.l2.tags.sampled_refs                    348980                       # Sample count of references to valid blocks.
system.l2.tags.avg_refs                     54.671391                       # Average number of references to valid blocks.
system.l2.tags.warmup_cycle                     77000                       # Cycle when the warmup percentage was hit.
system.l2.tags.occ_blocks::.writebacks      12.906834                       # Average occupied blocks per requestor
system.l2.tags.occ_blocks::.cpu.inst        85.572067                       # Average occupied blocks per requestor
system.l2.tags.occ_blocks::.cpu.data       925.309400                       # Average occupied blocks per requestor
system.l2.tags.occ_percent::.writebacks      0.012604                       # Average percentage of cache occupancy
system.l2.tags.occ_percent::.cpu.inst        0.083566                       # Average percentage of cache occupancy
system.l2.tags.occ_percent::.cpu.data        0.903622                       # Average percentage of cache occupancy
system.l2.tags.occ_percent::total            0.999793                       # Average percentage of cache occupancy
system.l2.tags.occ_task_id_blocks::1024          1024                       # Occupied blocks per task id
system.l2.tags.age_task_id_blocks_1024::0          116                       # Occupied blocks per task id
system.l2.tags.age_task_id_blocks_1024::1          574                       # Occupied blocks per task id
system.l2.tags.age_task_id_blocks_1024::2          218                       # Occupied blocks per task id
system.l2.tags.age_task_id_blocks_1024::3           18                       # Occupied blocks per task id
system.l2.tags.age_task_id_blocks_1024::4           98                       # Occupied blocks per task id
system.l2.tags.occ_task_id_percent::1024            1                       # Percentage of cache occupancy per task id
system.l2.tags.tag_accesses                 305616532                       # Number of tag accesses
system.l2.tags.data_accesses                305616532                       # Number of data accesses
system.l2.pwrStateResidencyTicks::UNDEFINED 230914965500                       # Cumulative time (in ticks) in various power states
system.l2.WritebackDirty_hits::.writebacks      4344702                       # number of WritebackDirty hits
system.l2.WritebackDirty_hits::total          4344702                       # number of WritebackDirty hits
system.l2.WritebackClean_hits::.writebacks      2329607                       # number of WritebackClean hits
system.l2.WritebackClean_hits::total          2329607                       # number of WritebackClean hits
system.l2.ReadExReq_hits::.cpu.data           1904423                       # number of ReadExReq hits
system.l2.ReadExReq_hits::total               1904423                       # number of ReadExReq hits
system.l2.ReadCleanReq_hits::.cpu.inst        2322006                       # number of ReadCleanReq hits
system.l2.ReadCleanReq_hits::total            2322006                       # number of ReadCleanReq hits
system.l2.ReadSharedReq_hits::.cpu.data       4967037                       # number of ReadSharedReq hits
system.l2.ReadSharedReq_hits::total           4967037                       # number of ReadSharedReq hits
[...]
system.l2.WritebackClean_accesses::total      2329607                       # number of WritebackClean accesses(hits+misses)
system.l2.ReadExReq_accesses::.cpu.data       1913439                       # number of ReadExReq accesses(hits+misses)
system.l2.ReadExReq_accesses::total           1913439                       # number of ReadExReq accesses(hits+misses)
system.l2.ReadCleanReq_accesses::.cpu.inst      2329735                       # number of ReadCleanReq accesses(hits+misses)
system.l2.ReadCleanReq_accesses::total        2329735                       # number of ReadCleanReq accesses(hits+misses)
system.l2.ReadSharedReq_accesses::.cpu.data      5296533                       # number of ReadSharedReq accesses(hits+misses)
system.l2.ReadSharedReq_accesses::total       5296533                       # number of ReadSharedReq accesses(hits+misses)
system.l2.demand_accesses::.cpu.inst          2329735                       # number of demand (read+write) accesses
system.l2.demand_accesses::.cpu.data          7209972                       # number of demand (read+write) accesses
system.l2.demand_accesses::total              9539707                       # number of demand (read+write) accesses
system.l2.overall_accesses::.cpu.inst         2329735                       # number of overall (read+write) accesses
system.l2.overall_accesses::.cpu.data         7209972                       # number of overall (read+write) accesses
system.l2.overall_accesses::total             9539707                       # number of overall (read+write) accesses
system.l2.ReadExReq_miss_rate::.cpu.data     0.004712                       # miss rate for ReadExReq accesses
system.l2.ReadExReq_miss_rate::total         0.004712                       # miss rate for ReadExReq accesses
system.l2.ReadCleanReq_miss_rate::.cpu.inst     0.003318                       # miss rate for ReadCleanReq accesses
system.l2.ReadCleanReq_miss_rate::total      0.003318                       # miss rate for ReadCleanReq accesses
system.l2.ReadSharedReq_miss_rate::.cpu.data     0.062210                       # miss rate for ReadSharedReq accesses
system.l2.ReadSharedReq_miss_rate::total     0.062210                       # miss rate for ReadSharedReq accesses
system.l2.demand_miss_rate::.cpu.inst        0.003318                       # miss rate for demand accesses
system.l2.demand_miss_rate::.cpu.data        0.046951                       # miss rate for demand accesses
system.l2.demand_miss_rate::total            0.036295                       # miss rate for demand accesses
system.l2.overall_miss_rate::.cpu.inst       0.003318                       # miss rate for overall accesses
system.l2.overall_miss_rate::.cpu.data       0.046951                       # miss rate for overall accesses
system.l2.overall_miss_rate::total           0.036295                       # miss rate for overall accesses
system.l2.ReadExReq_avg_miss_latency::.cpu.data 177088.065661                       # average ReadExReq miss latency
system.l2.ReadExReq_avg_miss_latency::total 177088.065661                       # average ReadExReq miss latency
system.l2.ReadCleanReq_avg_miss_latency::.cpu.inst 82901.798422                       # average ReadCleanReq miss latency
system.l2.ReadCleanReq_avg_miss_latency::total 82901.798422                       # average ReadCleanReq miss latency
system.l2.ReadSharedReq_avg_miss_latency::.cpu.data 93476.521718                       # average ReadSharedReq miss latency
system.l2.ReadSharedReq_avg_miss_latency::total 93476.521718                       # average ReadSharedReq miss latency
system.l2.demand_avg_miss_latency::.cpu.inst 82901.798422                       # average overall miss latency
system.l2.demand_avg_miss_latency::.cpu.data 95703.449213                       # average overall miss latency
system.l2.demand_avg_miss_latency::total 95417.683059                       # average overall miss latency
system.l2.overall_avg_miss_latency::.cpu.inst 82901.798422                       # average overall miss latency
system.l2.overall_avg_miss_latency::.cpu.data 95703.449213                       # average overall miss latency
system.l2.overall_avg_miss_latency::total 95417.683059                       # average overall miss latency
system.l2.blocked_cycles::no_mshrs                  0                       # number of cycles access was blocked
system.l2.blocked_cycles::no_targets                0                       # number of cycles access was blocked
system.l2.blocked::no_mshrs                         0                       # number of cycles access was blocked
system.l2.blocked::no_targets                       0                       # number of cycles access was blocked
system.l2.avg_blocked_cycles::no_mshrs            nan                       # average number of cycles each access was blocked
system.l2.avg_blocked_cycles::no_targets          nan                       # average number of cycles each access was blocked
system.l2.writebacks::.writebacks               31521                       # number of writebacks
system.l2.writebacks::total                     31521                       # number of writebacks
system.l2.ReadExReq_mshr_misses::.cpu.data         9016                       # number of ReadExReq MSHR misses
system.l2.ReadExReq_mshr_misses::total           9016                       # number of ReadExReq MSHR misses
system.l2.ReadCleanReq_mshr_misses::.cpu.inst         7729                       # number of ReadCleanReq MSHR misses
system.l2.ReadCleanReq_mshr_misses::total         7729                       # number of ReadCleanReq MSHR misses
system.l2.ReadSharedReq_mshr_misses::.cpu.data       329496                       # number of ReadSharedReq MSHR misses
system.l2.ReadSharedReq_mshr_misses::total       329496                       # number of ReadSharedReq MSHR misses
system.l2.demand_mshr_misses::.cpu.inst          7729                       # number of demand (read+write) MSHR misses
system.l2.demand_mshr_misses::.cpu.data        338512                       # number of demand (read+write) MSHR misses
system.l2.demand_mshr_misses::total            346241                       # number of demand (read+write) MSHR misses
system.l2.overall_mshr_misses::.cpu.inst         7729                       # number of overall MSHR misses
system.l2.overall_mshr_misses::.cpu.data       338512                       # number of overall MSHR misses
system.l2.overall_mshr_misses::total           346241                       # number of overall MSHR misses
system.l2.ReadExReq_mshr_miss_latency::.cpu.data   1506466000                       # number of ReadExReq MSHR miss cycles
system.l2.ReadExReq_mshr_miss_latency::total   1506466000                       # number of ReadExReq MSHR miss cycles
system.l2.ReadCleanReq_mshr_miss_latency::.cpu.inst    563458000                       # number of ReadCleanReq MSHR miss cycles
system.l2.ReadCleanReq_mshr_miss_latency::total    563458000                       # number of ReadCleanReq MSHR miss cycles
system.l2.ReadSharedReq_mshr_miss_latency::.cpu.data  27505180000                       # number of ReadSharedReq MSHR miss cycles
system.l2.ReadSharedReq_mshr_miss_latency::total  27505180000                       # number of ReadSharedReq MSHR miss cycles
system.l2.demand_mshr_miss_latency::.cpu.inst    563458000                       # number of demand (read+write) MSHR miss cycles
system.l2.demand_mshr_miss_latency::.cpu.data  29011646000                       # number of demand (read+write) MSHR miss cycles
system.l2.demand_mshr_miss_latency::total  29575104000                       # number of demand (read+write) MSHR miss cycles
system.l2.overall_mshr_miss_latency::.cpu.inst    563458000                       # number of overall MSHR miss cycles
system.l2.overall_mshr_miss_latency::.cpu.data  29011646000                       # number of overall MSHR miss cycles
system.l2.overall_mshr_miss_latency::total  29575104000                       # number of overall MSHR miss cycles
system.l2.ReadExReq_mshr_miss_rate::.cpu.data     0.004712                       # mshr miss rate for ReadExReq accesses
system.l2.ReadExReq_mshr_miss_rate::total     0.004712                       # mshr miss rate for ReadExReq accesses
system.l2.ReadCleanReq_mshr_miss_rate::.cpu.inst     0.003318                       # mshr miss rate for ReadCleanReq accesses
system.l2.ReadCleanReq_mshr_miss_rate::total     0.003318                       # mshr miss rate for ReadCleanReq accesses
system.l2.ReadSharedReq_mshr_miss_rate::.cpu.data     0.062210                       # mshr miss rate for ReadSharedReq accesses
system.l2.ReadSharedReq_mshr_miss_rate::total     0.062210                       # mshr miss rate for ReadSharedReq accesses
system.l2.demand_mshr_miss_rate::.cpu.inst     0.003318                       # mshr miss rate for demand accesses
system.l2.demand_mshr_miss_rate::.cpu.data     0.046951                       # mshr miss rate for demand accesses
system.l2.demand_mshr_miss_rate::total       0.036295                       # mshr miss rate for demand accesses
system.l2.overall_mshr_miss_rate::.cpu.inst     0.003318                       # mshr miss rate for overall accesses
system.l2.overall_mshr_miss_rate::.cpu.data     0.046951                       # mshr miss rate for overall accesses
system.l2.overall_mshr_miss_rate::total      0.036295                       # mshr miss rate for overall accesses
system.l2.ReadExReq_avg_mshr_miss_latency::.cpu.data 167088.065661                       # average ReadExReq mshr miss latency
system.l2.ReadExReq_avg_mshr_miss_latency::total 167088.065661                       # average ReadExReq mshr miss latency
system.l2.ReadCleanReq_avg_mshr_miss_latency::.cpu.inst 72901.798422                       # average ReadCleanReq mshr miss latency
system.l2.ReadCleanReq_avg_mshr_miss_latency::total 72901.798422                       # average ReadCleanReq mshr miss latency
system.l2.ReadSharedReq_avg_mshr_miss_latency::.cpu.data 83476.521718                       # average ReadSharedReq mshr miss latency
system.l2.ReadSharedReq_avg_mshr_miss_latency::total 83476.521718                       # average ReadSharedReq mshr miss latency
system.l2.demand_avg_mshr_miss_latency::.cpu.inst 72901.798422                       # average overall mshr miss latency
system.l2.demand_avg_mshr_miss_latency::.cpu.data 85703.449213                       # average overall mshr miss latency
system.l2.demand_avg_mshr_miss_latency::total 85417.683059                       # average overall mshr miss latency
system.l2.overall_avg_mshr_miss_latency::.cpu.inst 72901.798422                       # average overall mshr miss latency
system.l2.overall_avg_mshr_miss_latency::.cpu.data 85703.449213                       # average overall mshr miss latency
system.l2.overall_avg_mshr_miss_latency::total 85417.683059                       # average overall mshr miss latency
system.l2.replacements                         347956                       # number of replacements
system.membus.snoop_filter.tot_requests        691452                       # Total number of requests made to the snoop filter.
system.membus.snoop_filter.hit_single_requests       345211                       # Number of requests hitting in the snoop filter with a single holder of the requested data.
system.membus.snoop_filter.hit_multi_requests            0                       # Number of requests hitting in the snoop filter with multiple (>1) holders of the requested data.
system.membus.snoop_filter.tot_snoops               0                       # Total number of snoops made to the snoop filter.
system.membus.snoop_filter.hit_single_snoops            0                       # Number of snoops hitting in the snoop filter with a single holder of the requested data.
system.membus.snoop_filter.hit_multi_snoops            0                       # Number of snoops hitting in the snoop filter with multiple (>1) holders of the requested data.
system.membus.pwrStateResidencyTicks::UNDEFINED 230914965500                       # Cumulative time (in ticks) in various power states
system.membus.trans_dist::ReadResp             337225                       # Transaction distribution
system.membus.trans_dist::WritebackDirty        31521                       # Transaction distribution
system.membus.trans_dist::CleanEvict           313690                       # Transaction distribution
system.membus.trans_dist::ReadExReq              9016                       # Transaction distribution
system.membus.trans_dist::ReadExResp             9016                       # Transaction distribution
system.membus.trans_dist::ReadSharedReq        337225                       # Transaction distribution
system.membus.pkt_count_system.l2.mem_side::system.mem_ctrls.port      1037693                       # Packet count per connected master and slave (bytes)
system.membus.pkt_count::total                1037693                       # Packet count per connected master and slave (bytes)
system.membus.pkt_size_system.l2.mem_side::system.mem_ctrls.port      6044192                       # Cumulative packet size per connected master and slave (bytes)
system.membus.pkt_size::total                 6044192                       # Cumulative packet size per connected master and slave (bytes)
system.membus.snoops                                0                       # Total snoops (count)
system.membus.snoopTraffic                          0                       # Total snoop traffic (bytes)
system.membus.snoop_fanout::samples            346241                       # Request fanout histogram
system.membus.snoop_fanout::mean                    0                       # Request fanout histogram
system.membus.snoop_fanout::stdev                   0                       # Request fanout histogram
system.membus.snoop_fanout::underflows              0      0.00%      0.00% # Request fanout histogram
system.membus.snoop_fanout::0                  346241    100.00%    100.00% # Request fanout histogram
system.membus.snoop_fanout::1                       0      0.00%    100.00% # Request fanout histogram
system.membus.snoop_fanout::overflows               0      0.00%    100.00% # Request fanout histogram
system.membus.snoop_fanout::min_value               0                       # Request fanout histogram
system.membus.snoop_fanout::max_value               0                       # Request fanout histogram
system.membus.snoop_fanout::total              346241                       # Request fanout histogram
system.membus.reqLayer0.occupancy           722973500                       # Layer occupancy (ticks)
system.membus.reqLayer0.utilization               0.3                       # Layer utilization (%)
system.membus.respLayer1.occupancy          788489250                       # Layer occupancy (ticks)
system.membus.respLayer1.utilization              0.3                       # Layer utilization (%)
system.tol2bus.snoop_filter.tot_requests     19079222                       # Total number of requests made to the snoop filter.
system.tol2bus.snoop_filter.hit_single_requests      9539515                       # Number of requests hitting in the snoop filter with a single holder of the requested data.
system.tol2bus.snoop_filter.hit_multi_requests            0                       # Number of requests hitting in the snoop filter with multiple (>1) holders of the requested data.
system.tol2bus.snoop_filter.tot_snoops           2745                       # Total number of snoops made to the snoop filter.
system.tol2bus.snoop_filter.hit_single_snoops         2745                       # Number of snoops hitting in the snoop filter with a single holder of the requested data.
system.tol2bus.snoop_filter.hit_multi_snoops            0                       # Number of snoops hitting in the snoop filter with multiple (>1) holders of the requested data.
system.tol2bus.pwrStateResidencyTicks::UNDEFINED 230914965500                       # Cumulative time (in ticks) in various power states
system.tol2bus.trans_dist::ReadResp           7626268                       # Transaction distribution
system.tol2bus.trans_dist::WritebackDirty      4376223                       # Transaction distribution
system.tol2bus.trans_dist::WritebackClean      2329607                       # Transaction distribution
system.tol2bus.trans_dist::CleanEvict         3181641                       # Transaction distribution
system.tol2bus.trans_dist::ReadExReq          1913439                       # Transaction distribution
system.tol2bus.trans_dist::ReadExResp         1913439                       # Transaction distribution
system.tol2bus.trans_dist::ReadCleanReq       2329735                       # Transaction distribution
system.tol2bus.trans_dist::ReadSharedReq      5296533                       # Transaction distribution
system.tol2bus.pkt_count_system.cpu.icache.mem_side::system.l2.cpu_side      6989077                       # Packet count per connected master and slave (bytes)
system.tol2bus.pkt_count_system.cpu.dcache.mem_side::system.l2.cpu_side     21629852                       # Packet count per connected master and slave (bytes)
system.tol2bus.pkt_count::total              28618929                       # Packet count per connected master and slave (bytes)
system.tol2bus.pkt_size_system.cpu.icache.mem_side::system.l2.cpu_side     74549472                       # Cumulative packet size per connected master and slave (bytes)
system.tol2bus.pkt_size_system.cpu.dcache.mem_side::system.l2.cpu_side    184874784                       # Cumulative packet size per connected master and slave (bytes)
system.tol2bus.pkt_size::total              259424256                       # Cumulative packet size per connected master and slave (bytes)
system.tol2bus.snoops                          347956                       # Total snoops (count)
system.tol2bus.snoopTraffic                    504336                       # Total snoop traffic (bytes)
system.tol2bus.snoop_fanout::samples          9887663                       # Request fanout histogram
system.tol2bus.snoop_fanout::mean            0.000278                       # Request fanout histogram
system.tol2bus.snoop_fanout::stdev           0.016660                       # Request fanout histogram
system.tol2bus.snoop_fanout::underflows             0      0.00%      0.00% # Request fanout histogram
system.tol2bus.snoop_fanout::0                9884918     99.97%     99.97% # Request fanout histogram
system.tol2bus.snoop_fanout::1                   2745      0.03%    100.00% # Request fanout histogram
system.tol2bus.snoop_fanout::2                      0      0.00%    100.00% # Request fanout histogram
system.tol2bus.snoop_fanout::overflows              0      0.00%    100.00% # Request fanout histogram
system.tol2bus.snoop_fanout::min_value              0                       # Request fanout histogram
system.tol2bus.snoop_fanout::max_value              1                       # Request fanout histogram
system.tol2bus.snoop_fanout::total            9887663                       # Request fanout histogram
system.tol2bus.reqLayer0.occupancy        12876765500                       # Layer occupancy (ticks)
system.tol2bus.reqLayer0.utilization              5.6                       # Layer utilization (%)
system.tol2bus.respLayer0.occupancy        2329735000                       # Layer occupancy (ticks)
system.tol2bus.respLayer0.utilization             1.0                       # Layer utilization (%)
system.tol2bus.respLayer1.occupancy        7209972000                       # Layer occupancy (ticks)
system.tol2bus.respLayer1.utilization             3.1                       # Layer utilization (%)

---------- End Simulation Statistics   ----------
