
---------- Begin Simulation Statistics ----------
sim_seconds                                  0.170392                       # Number of seconds simulated
sim_ticks                                170392016500                       # Number of ticks simulated
final_tick                               170392016500                       # Number of ticks from beginning of simulation (restored from checkpoints and never reset)
sim_freq                                 1000000000000                       # Frequency of simulated ticks
host_inst_rate                                 390801                       # Simulator instruction rate (inst/s)
host_op_rate                                   390801                       # Simulator op (including micro ops) rate (op/s)
host_tick_rate                             1089938053                       # Simulator tick rate (ticks/s)
host_mem_usage                                 666772                       # Number of bytes of host memory used
host_seconds                                   156.33                       # Real time elapsed on the host
sim_insts                                    61094659                       # Number of instructions simulated
sim_ops                                      61094659                       # Number of ops (including micro ops) simulated
system.voltage_domain.voltage                       1                       # Voltage in Volts
system.clk_domain.clock                          1000                       # Clock period in ticks
system.mem_ctrls.pwrStateResidencyTicks::UNDEFINED 170392016500                       # Cumulative time (in ticks) in various power states
system.mem_ctrls.bytes_read::.cpu.inst         124496                       # Number of bytes read from this memory
system.mem_ctrls.bytes_read::.cpu.data        5357504                       # Number of bytes read from this memory
system.mem_ctrls.bytes_read::total            5482000                       # Number of bytes read from this memory
system.mem_ctrls.bytes_inst_read::.cpu.inst       124496                       # Number of instructions bytes read from this memory
system.mem_ctrls.bytes_inst_read::total        124496                       # Number of instructions bytes read from this memory
system.mem_ctrls.bytes_written::.writebacks       500208                       # Number of bytes written to this memory
system.mem_ctrls.bytes_written::total          500208                       # Number of bytes written to this memory
system.mem_ctrls.num_reads::.cpu.inst            7781                       # Number of read requests responded to by this memory
system.mem_ctrls.num_reads::.cpu.data          334844                       # Number of read requests responded to by this memory
system.mem_ctrls.num_reads::total              342625                       # Number of read requests responded to by this memory
system.mem_ctrls.num_writes::.writebacks        31263                       # Number of write requests responded to by this memory
system.mem_ctrls.num_writes::total              31263                       # Number of write requests responded to by this memory
system.mem_ctrls.bw_read::.cpu.inst            730645                       # Total read bandwidth from this memory (bytes/s)
system.mem_ctrls.bw_read::.cpu.data          31442224                       # Total read bandwidth from this memory (bytes/s)
system.mem_ctrls.bw_read::total              32172869                       # Total read bandwidth from this memory (bytes/s)
system.mem_ctrls.bw_inst_read::.cpu.inst       730645                       # Instruction read bandwidth from this memory (bytes/s)
system.mem_ctrls.bw_inst_read::total           730645                       # Instruction read bandwidth from this memory (bytes/s)
system.mem_ctrls.bw_write::.writebacks        2935630                       # Write bandwidth from this memory (bytes/s)
system.mem_ctrls.bw_write::total              2935630                       # Write bandwidth from this memory (bytes/s)
system.mem_ctrls.bw_total::.writebacks        2935630                       # Total bandwidth to/from this memory (bytes/s)
system.mem_ctrls.bw_total::.cpu.inst           730645                       # Total bandwidth to/from this memory (bytes/s)
system.mem_ctrls.bw_total::.cpu.data         31442224                       # Total bandwidth to/from this memory (bytes/s)
system.mem_ctrls.bw_total::total             35108499                       # Total bandwidth to/from this memory (bytes/s)
system.mem_ctrls.avgPriority_.writebacks::samples     24028.00                       # Average QoS priority value for accepted requests
system.mem_ctrls.avgPriority_.cpu.inst::samples      7781.00                       # Average QoS priority value for accepted requests
system.mem_ctrls.avgPriority_.cpu.data::samples    330669.00                       # Average QoS priority value for accepted requests
system.mem_ctrls.priorityMinLatency      0.000000018750                       # per QoS priority minimum request to response latency (s)
system.mem_ctrls.priorityMaxLatency      0.004322814500                       # per QoS priority maximum request to response latency (s)
system.mem_ctrls.numReadWriteTurnArounds         1352                       # Number of turnarounds from READ to WRITE
system.mem_ctrls.numWriteReadTurnArounds         1352                       # Number of turnarounds from WRITE to READ
system.mem_ctrls.numStayReadState              743900                       # Number of times bus staying in READ state
system.mem_ctrls.numStayWriteState              22864                       # Number of times bus staying in WRITE state
system.mem_ctrls.readReqs                      342625                       # Number of read requests accepted
system.mem_ctrls.writeReqs                      31263                       # Number of write requests accepted
system.mem_ctrls.readBursts                    342625                       # Number of DRAM read bursts, including those serviced by the write queue
system.mem_ctrls.writeBursts                    31263                       # Number of DRAM write bursts, including those merged in the write queue
system.mem_ctrls.bytesReadDRAM               21660800                       # Total number of bytes read from DRAM
system.mem_ctrls.bytesReadWrQ                  267200                       # Total number of bytes read from write queue
system.mem_ctrls.bytesWritten                 1535808                       # Total number of bytes written to DRAM
system.mem_ctrls.bytesReadSys                 5482000                       # Total read bytes from the system interface side
system.mem_ctrls.bytesWrittenSys               500208                       # Total written bytes from the system interface side
system.mem_ctrls.servicedByWrQ                   4175                       # Number of DRAM read bursts serviced by the write queue
system.mem_ctrls.mergedWrBursts                  7235                       # Number of DRAM write bursts merged with an existing one
system.mem_ctrls.neitherReadNorWriteReqs            0                       # Number of requests that are neither read nor write
system.mem_ctrls.perBankRdBursts::0              1890                       # Per bank write bursts
system.mem_ctrls.perBankRdBursts::1              2178                       # Per bank write bursts
system.mem_ctrls.perBankRdBursts::2             11160                       # Per bank write bursts
system.mem_ctrls.perBankRdBursts::3             31231                       # Per bank write bursts
system.mem_ctrls.perBankRdBursts::4              2948                       # Per bank write bursts
system.mem_ctrls.perBankRdBursts::5              1257                       # Per bank write bursts
system.mem_ctrls.perBankRdBursts::6             11872                       # Per bank write bursts
system.mem_ctrls.perBankRdBursts::7             56052                       # Per bank write bursts
system.mem_ctrls.perBankRdBursts::8             59142                       # Per bank write bursts
system.mem_ctrls.perBankRdBursts::9             58800                       # Per bank write bursts
system.mem_ctrls.perBankRdBursts::10            61035                       # Per bank write bursts
system.mem_ctrls.perBankRdBursts::11            40705                       # Per bank write bursts
system.mem_ctrls.perBankRdBursts::12               16                       # Per bank write bursts
system.mem_ctrls.perBankRdBursts::13              110                       # Per bank write bursts
system.mem_ctrls.perBankRdBursts::14               54                       # Per bank write bursts
system.mem_ctrls.perBankRdBursts::15                0                       # Per bank write bursts
system.mem_ctrls.perBankWrBursts::0                 0                       # Per bank write bursts
system.mem_ctrls.perBankWrBursts::1               895                       # Per bank write bursts
system.mem_ctrls.perBankWrBursts::2              5260                       # Per bank write bursts
system.mem_ctrls.perBankWrBursts::3             16108                       # Per bank write bursts
system.mem_ctrls.perBankWrBursts::4                94                       # Per bank write bursts
system.mem_ctrls.perBankWrBursts::5                91                       # Per bank write bursts
system.mem_ctrls.perBankWrBursts::6               173                       # Per bank write bursts
system.mem_ctrls.perBankWrBursts::7               308                       # Per bank write bursts
system.mem_ctrls.perBankWrBursts::8               293                       # Per bank write bursts
system.mem_ctrls.perBankWrBursts::9               282                       # Per bank write bursts
system.mem_ctrls.perBankWrBursts::10              310                       # Per bank write bursts
system.mem_ctrls.perBankWrBursts::11              183                       # Per bank write bursts
system.mem_ctrls.perBankWrBursts::12                0                       # Per bank write bursts
system.mem_ctrls.perBankWrBursts::13                0                       # Per bank write bursts
system.mem_ctrls.perBankWrBursts::14                0                       # Per bank write bursts
system.mem_ctrls.perBankWrBursts::15                0                       # Per bank write bursts
system.mem_ctrls.numRdRetry                         0                       # Number of times read queue was full causing retry
system.mem_ctrls.numWrRetry                         0                       # Number of times write queue was full causing retry
system.mem_ctrls.totGap                  170392003500                       # Total gap between requests
system.mem_ctrls.readPktSize::0                     0                       # Read request sizes (log2)
system.mem_ctrls.readPktSize::1                     0                       # Read request sizes (log2)
system.mem_ctrls.readPktSize::2                     0                       # Read request sizes (log2)
system.mem_ctrls.readPktSize::3                     0                       # Read request sizes (log2)
system.mem_ctrls.readPktSize::4                342625                       # Read request sizes (log2)
system.mem_ctrls.readPktSize::5                     0                       # Read request sizes (log2)
system.mem_ctrls.readPktSize::6                     0                       # Read request sizes (log2)
system.mem_ctrls.writePktSize::0                    0                       # Write request sizes (log2)
system.mem_ctrls.writePktSize::1                    0                       # Write request sizes (log2)
system.mem_ctrls.writePktSize::2                    0                       # Write request sizes (log2)
system.mem_ctrls.writePktSize::3                    0                       # Write request sizes (log2)
system.mem_ctrls.writePktSize::4                31263                       # Write request sizes (log2)
system.mem_ctrls.writePktSize::5                    0                       # Write request sizes (log2)
system.mem_ctrls.writePktSize::6                    0                       # Write request sizes (log2)
system.mem_ctrls.rdQLenPdf::0                  338450                       # What read queue length does an incoming req see
system.mem_ctrls.rdQLenPdf::1                       0                       # What read queue length does an incoming req see
system.mem_ctrls.rdQLenPdf::2                       0                       # What read queue length does an incoming req see
system.mem_ctrls.rdQLenPdf::3                       0                       # What read queue length does an incoming req see
system.mem_ctrls.rdQLenPdf::4                       0                       # What read queue length does an incoming req see
system.mem_ctrls.rdQLenPdf::5                       0                       # What read queue length does an incoming req see
system.mem_ctrls.rdQLenPdf::6                       0                       # What read queue length does an incoming req see
system.mem_ctrls.rdQLenPdf::7                       0                       # What read queue length does an incoming req see
system.mem_ctrls.rdQLenPdf::8                       0                       # What read queue length does an incoming req see
system.mem_ctrls.rdQLenPdf::9                       0                       # What read queue length does an incoming req see
system.mem_ctrls.rdQLenPdf::10                      0                       # What read queue length does an incoming req see
system.mem_ctrls.rdQLenPdf::11                      0                       # What read queue length does an incoming req see
system.mem_ctrls.rdQLenPdf::12                      0                       # What read queue length does an incoming req see
system.mem_ctrls.rdQLenPdf::13                      0                       # What read queue length does an incoming req see
system.mem_ctrls.rdQLenPdf::14                      0                       # What read queue length does an incoming req see
system.mem_ctrls.rdQLenPdf::15                      0                       # What read queue length does an incoming req see
system.mem_ctrls.rdQLenPdf::16                      0                       # What read queue length does an incoming req see
system.mem_ctrls.rdQLenPdf::17                      0                       # What read queue length does an incoming req see
system.mem_ctrls.rdQLenPdf::18                      0                       # What read queue length does an incoming req see
system.mem_ctrls.rdQLenPdf::19                      0                       # What read queue length does an incoming req see
system.mem_ctrls.rdQLenPdf::20                      0                       # What read queue length does an incoming req see
system.mem_ctrls.rdQLenPdf::21                      0                       # What read queue length does an incoming req see
system.mem_ctrls.rdQLenPdf::22                      0                       # What read queue length does an incoming req see
system.mem_ctrls.rdQLenPdf::23                      0                       # What read queue length does an incoming req see
system.mem_ctrls.rdQLenPdf::24                      0                       # What read queue length does an incoming req see
system.mem_ctrls.rdQLenPdf::25                      0                       # What read queue length does an incoming req see
system.mem_ctrls.rdQLenPdf::26                      0                       # What read queue length does an incoming req see
system.mem_ctrls.rdQLenPdf::27                      0                       # What read queue length does an incoming req see
system.mem_ctrls.rdQLenPdf::28                      0                       # What read queue length does an incoming req see
system.mem_ctrls.rdQLenPdf::29                      0                       # What read queue length does an incoming req see
system.mem_ctrls.rdQLenPdf::30                      0                       # What read queue length does an incoming req see
system.mem_ctrls.rdQLenPdf::31                      0                       # What read queue length does an incoming req see
system.mem_ctrls.wrQLenPdf::0                       1                       # What write queue length does an incoming req see
system.mem_ctrls.wrQLenPdf::1                       1                       # What write queue length does an incoming req see
system.mem_ctrls.wrQLenPdf::2                       1                       # What write queue length does an incoming req see
system.mem_ctrls.wrQLenPdf::3                       1                       # What write queue length does an incoming req see
system.mem_ctrls.wrQLenPdf::4                       1                       # What write queue length does an incoming req see
system.mem_ctrls.wrQLenPdf::5                       1                       # What write queue length does an incoming req see
system.mem_ctrls.wrQLenPdf::6                       1                       # What write queue length does an incoming req see
system.mem_ctrls.wrQLenPdf::7                       1                       # What write queue length does an incoming req see
system.mem_ctrls.wrQLenPdf::8                       1                       # What write queue length does an incoming req see
system.mem_ctrls.wrQLenPdf::9                       1                       # What write queue length does an incoming req see
system.mem_ctrls.wrQLenPdf::10                      1                       # What write queue length does an incoming req see
system.mem_ctrls.wrQLenPdf::11                      1                       # What write queue length does an incoming req see
system.mem_ctrls.wrQLenPdf::12                      1                       # What write queue length does an incoming req see
system.mem_ctrls.wrQLenPdf::13                      1                       # What write queue length does an incoming req see
system.mem_ctrls.wrQLenPdf::14                      1                       # What write queue length does an incoming req see
system.mem_ctrls.wrQLenPdf::15                   1174                       # What write queue length does an incoming req see
system.mem_ctrls.wrQLenPdf::16                   1182                       # What write queue length does an incoming req see
system.mem_ctrls.wrQLenPdf::17                   1350                       # What write queue length does an incoming req see
system.mem_ctrls.wrQLenPdf::18                   1354                       # What write queue length does an incoming req see
system.mem_ctrls.wrQLenPdf::19                   1358                       # What write queue length does an incoming req see
system.mem_ctrls.wrQLenPdf::20                   1353                       # What write queue length does an incoming req see
system.mem_ctrls.wrQLenPdf::21                   1353                       # What write queue length does an incoming req see
system.mem_ctrls.wrQLenPdf::22                   1354                       # What write queue length does an incoming req see
system.mem_ctrls.wrQLenPdf::23                   1353                       # What write queue length does an incoming req see
system.mem_ctrls.wrQLenPdf::24                   1353                       # What write queue length does an incoming req see
system.mem_ctrls.wrQLenPdf::25                   1353                       # What write queue length does an incoming req see
system.mem_ctrls.wrQLenPdf::26                   1356                       # What write queue length does an incoming req see
system.mem_ctrls.wrQLenPdf::27                   1353                       # What write queue length does an incoming req see
system.mem_ctrls.wrQLenPdf::28                   1353                       # What write queue length does an incoming req see
system.mem_ctrls.wrQLenPdf::29                   1355                       # What write queue length does an incoming req see
system.mem_ctrls.wrQLenPdf::30                   1353                       # What write queue length does an incoming req see
system.mem_ctrls.wrQLenPdf::31                   1352                       # What write queue length does an incoming req see
system.mem_ctrls.wrQLenPdf::32                   1352                       # What write queue length does an incoming req see
system.mem_ctrls.wrQLenPdf::33                      1                       # What write queue length does an incoming req see
system.mem_ctrls.wrQLenPdf::34                      1                       # What write queue length does an incoming req see
system.mem_ctrls.wrQLenPdf::35                      0                       # What write queue length does an incoming req see
system.mem_ctrls.wrQLenPdf::36                      0                       # What write queue length does an incoming req see
system.mem_ctrls.wrQLenPdf::37                      0                       # What write queue length does an incoming req see
system.mem_ctrls.wrQLenPdf::38                      0                       # What write queue length does an incoming req see
system.mem_ctrls.wrQLenPdf::39                      0                       # What write queue length does an incoming req see
system.mem_ctrls.wrQLenPdf::40                      0                       # What write queue length does an incoming req see
system.mem_ctrls.wrQLenPdf::41                      0                       # What write queue length does an incoming req see
system.mem_ctrls.wrQLenPdf::42                      0                       # What write queue length does an incoming req see
system.mem_ctrls.wrQLenPdf::43                      0                       # What write queue length does an incoming req see
system.mem_ctrls.wrQLenPdf::44                      0                       # What write queue length does an incoming req see
system.mem_ctrls.wrQLenPdf::45                      0                       # What write queue length does an incoming req see
system.mem_ctrls.wrQLenPdf::46                      0                       # What write queue length does an incoming req see
system.mem_ctrls.wrQLenPdf::47                      0                       # What write queue length does an incoming req see
system.mem_ctrls.wrQLenPdf::48                      0                       # What write queue length does an incoming req see
system.mem_ctrls.wrQLenPdf::49                      0                       # What write queue length does an incoming req see
system.mem_ctrls.wrQLenPdf::50                      0                       # What write queue length does an incoming req see
system.mem_ctrls.wrQLenPdf::51                      0                       # What write queue length does an incoming req see
system.mem_ctrls.wrQLenPdf::52                      0                       # What write queue length does an incoming req see
system.mem_ctrls.wrQLenPdf::53                      0                       # What write queue length does an incoming req see
system.mem_ctrls.wrQLenPdf::54                      0                       # What write queue length does an incoming req see
system.mem_ctrls.wrQLenPdf::55                      0                       # What write queue length does an incoming req see
system.mem_ctrls.wrQLenPdf::56                      0                       # What write queue length does an incoming req see
system.mem_ctrls.wrQLenPdf::57                      0                       # What write queue length does an incoming req see
system.mem_ctrls.wrQLenPdf::58                      0                       # What write queue length does an incoming req see
system.mem_ctrls.wrQLenPdf::59                      0                       # What write queue length does an incoming req see
system.mem_ctrls.wrQLenPdf::60                      0                       # What write queue length does an incoming req see
system.mem_ctrls.wrQLenPdf::61                      0                       # What write queue length does an incoming req see
system.mem_ctrls.wrQLenPdf::62                      0                       # What write queue length does an incoming req see
system.mem_ctrls.wrQLenPdf::63                      0                       # What write queue length does an incoming req see
system.mem_ctrls.bytesPerActivate::samples        53110                       # Bytes accessed per row activation
system.mem_ctrls.bytesPerActivate::mean    436.754510                       # Bytes accessed per row activation
system.mem_ctrls.bytesPerActivate::gmean   266.813434                       # Bytes accessed per row activation
system.mem_ctrls.bytesPerActivate::stdev   372.749798                       # Bytes accessed per row activation
system.mem_ctrls.bytesPerActivate::0-127        13353     25.14%     25.14% # Bytes accessed per row activation
system.mem_ctrls.bytesPerActivate::128-255        10995     20.70%     45.84% # Bytes accessed per row activation
system.mem_ctrls.bytesPerActivate::256-383         4191      7.89%     53.74% # Bytes accessed per row activation
system.mem_ctrls.bytesPerActivate::384-511         3253      6.13%     59.86% # Bytes accessed per row activation
system.mem_ctrls.bytesPerActivate::512-639         3761      7.08%     66.94% # Bytes accessed per row activation
system.mem_ctrls.bytesPerActivate::640-767         3350      6.31%     73.25% # Bytes accessed per row activation
system.mem_ctrls.bytesPerActivate::768-895         2424      4.56%     77.81% # Bytes accessed per row activation
system.mem_ctrls.bytesPerActivate::896-1023         1312      2.47%     80.28% # Bytes accessed per row activation
system.mem_ctrls.bytesPerActivate::1024-1151        10471     19.72%    100.00% # Bytes accessed per row activation
system.mem_ctrls.bytesPerActivate::total        53110                       # Bytes accessed per row activation
system.mem_ctrls.rdPerTurnAround::samples         1352                       # Reads before turning the bus around for writes
system.mem_ctrls.rdPerTurnAround::mean     249.860947                       # Reads before turning the bus around for writes
system.mem_ctrls.rdPerTurnAround::gmean    162.342065                       # Reads before turning the bus around for writes
system.mem_ctrls.rdPerTurnAround::stdev    254.311834                       # Reads before turning the bus around for writes
system.mem_ctrls.rdPerTurnAround::0-127           554     40.98%     40.98% # Reads before turning the bus around for writes
system.mem_ctrls.rdPerTurnAround::128-255          251     18.57%     59.54% # Reads before turning the bus around for writes
system.mem_ctrls.rdPerTurnAround::256-383          288     21.30%     80.84% # Reads before turning the bus around for writes
system.mem_ctrls.rdPerTurnAround::384-511          142     10.50%     91.35% # Reads before turning the bus around for writes
system.mem_ctrls.rdPerTurnAround::512-639           53      3.92%     95.27% # Reads before turning the bus around for writes
system.mem_ctrls.rdPerTurnAround::640-767           18      1.33%     96.60% # Reads before turning the bus around for writes
system.mem_ctrls.rdPerTurnAround::768-895           10      0.74%     97.34% # Reads before turning the bus around for writes
system.mem_ctrls.rdPerTurnAround::896-1023            9      0.67%     98.00% # Reads before turning the bus around for writes
system.mem_ctrls.rdPerTurnAround::1024-1151            9      0.67%     98.67% # Reads before turning the bus around for writes
system.mem_ctrls.rdPerTurnAround::1152-1279            7      0.52%     99.19% # Reads before turning the bus around for writes
system.mem_ctrls.rdPerTurnAround::1280-1407            1      0.07%     99.26% # Reads before turning the bus around for writes
system.mem_ctrls.rdPerTurnAround::1408-1535            1      0.07%     99.33% # Reads before turning the bus around for writes
system.mem_ctrls.rdPerTurnAround::1536-1663            3      0.22%     99.56% # Reads before turning the bus around for writes
system.mem_ctrls.rdPerTurnAround::1664-1791            1      0.07%     99.63% # Reads before turning the bus around for writes
system.mem_ctrls.rdPerTurnAround::1792-1919            2      0.15%     99.78% # Reads before turning the bus around for writes
system.mem_ctrls.rdPerTurnAround::1920-2047            2      0.15%     99.93% # Reads before turning the bus around for writes
system.mem_ctrls.rdPerTurnAround::3072-3199            1      0.07%    100.00% # Reads before turning the bus around for writes
system.mem_ctrls.rdPerTurnAround::total          1352                       # Reads before turning the bus around for writes
system.mem_ctrls.wrPerTurnAround::samples         1352                       # Writes before turning the bus around for reads
system.mem_ctrls.wrPerTurnAround::mean      17.749260                       # Writes before turning the bus around for reads
system.mem_ctrls.wrPerTurnAround::gmean     17.735466                       # Writes before turning the bus around for reads
system.mem_ctrls.wrPerTurnAround::stdev      0.680705                       # Writes before turning the bus around for reads
system.mem_ctrls.wrPerTurnAround::16              174     12.87%     12.87% # Writes before turning the bus around for reads
system.mem_ctrls.wrPerTurnAround::17                3      0.22%     13.09% # Writes before turning the bus around for reads
system.mem_ctrls.wrPerTurnAround::18             1163     86.02%     99.11% # Writes before turning the bus around for reads
system.mem_ctrls.wrPerTurnAround::19               12      0.89%    100.00% # Writes before turning the bus around for reads
system.mem_ctrls.wrPerTurnAround::total          1352                       # Writes before turning the bus around for reads
system.mem_ctrls.masterReadBytes::.cpu.inst       124496                       # Per-master bytes read from memory
system.mem_ctrls.masterReadBytes::.cpu.data      5290704                       # Per-master bytes read from memory
system.mem_ctrls.masterWriteBytes::.writebacks       383952                       # Per-master bytes write to memory
system.mem_ctrls.masterReadRate::.cpu.inst 730644.560450988007                       # Per-master bytes read from memory rate (Bytes/sec)
system.mem_ctrls.masterReadRate::.cpu.data 31050187.143010895699                       # Per-master bytes read from memory rate (Bytes/sec)
system.mem_ctrls.masterWriteRate::.writebacks 2253345.009271605406                       # Per-master bytes write to memory rate (Bytes/sec)
system.mem_ctrls.masterReadAccesses::.cpu.inst         7781                       # Per-master read serviced memory accesses
system.mem_ctrls.masterReadAccesses::.cpu.data       334844                       # Per-master read serviced memory accesses
system.mem_ctrls.masterWriteAccesses::.writebacks        31263                       # Per-master write serviced memory accesses
system.mem_ctrls.masterReadTotalLat::.cpu.inst    242479000                       # Per-master read total memory access latency
system.mem_ctrls.masterReadTotalLat::.cpu.data  13055663250                       # Per-master read total memory access latency
system.mem_ctrls.masterWriteTotalLat::.writebacks 4049553267750                       # Per-master write total memory access latency
system.mem_ctrls.masterReadAvgLat::.cpu.inst     31162.96                       # Per-master read average memory access latency
system.mem_ctrls.masterReadAvgLat::.cpu.data     38990.29                       # Per-master read average memory access latency
system.mem_ctrls.masterWriteAvgLat::.writebacks 129531819.33                       # Per-master write average memory access latency
system.mem_ctrls.totQLat                   6952204750                       # Total ticks spent queuing
system.mem_ctrls.totMemAccLat             13298142250                       # Total ticks spent from burst creation until serviced by the DRAM
system.mem_ctrls.totBusLat                 1692250000                       # Total ticks spent in databus transfers
system.mem_ctrls.avgQLat                     20541.31                       # Average queueing delay per DRAM burst
system.mem_ctrls.avgBusLat                    5000.00                       # Average bus latency per DRAM burst
system.mem_ctrls.avgMemAccLat                39291.31                       # Average memory access latency per DRAM burst
system.mem_ctrls.avgRdBW                       127.12                       # Average DRAM read bandwidth in MiByte/s
system.mem_ctrls.avgWrBW                         9.01                       # Average achieved write bandwidth in MiByte/s
system.mem_ctrls.avgRdBWSys                     32.17                       # Average system read bandwidth in MiByte/s
system.mem_ctrls.avgWrBWSys                      2.94                       # Average system write bandwidth in MiByte/s
system.mem_ctrls.peakBW                      12800.00                       # Theoretical peak bandwidth in MiByte/s
system.mem_ctrls.busUtil                         1.06                       # Data bus utilization in percentage
system.mem_ctrls.busUtilRead                     0.99                       # Data bus utilization in percentage for reads
system.mem_ctrls.busUtilWrite                    0.07                       # Data bus utilization in percentage for writes
system.mem_ctrls.avgRdQLen                       1.00                       # Average read queue length when enqueuing
system.mem_ctrls.avgWrQLen                      24.69                       # Average write queue length when enqueuing
system.mem_ctrls.readRowHits                   287552                       # Number of row buffer hits during reads
system.mem_ctrls.writeRowHits                   21782                       # Number of row buffer hits during writes
system.mem_ctrls.readRowHitRate                 84.96                       # Row buffer hit rate for reads
system.mem_ctrls.writeRowHitRate                90.65                       # Row buffer hit rate for writes
system.mem_ctrls.avgGap                     455730.07                       # Average gap between requests
system.mem_ctrls.pageHitRate                    85.34                       # Row buffer hit rate, read and write combined
system.mem_ctrls_0.actEnergy                208987800                       # Energy for activate commands per rank (pJ)
system.mem_ctrls_0.preEnergy                111072060                       # Energy for precharge commands per rank (pJ)
system.mem_ctrls_0.readEnergy               846718320                       # Energy for read commands per rank (pJ)
system.mem_ctrls_0.writeEnergy              119689380                       # Energy for write commands per rank (pJ)
system.mem_ctrls_0.refreshEnergy         12032807280.000002                       # Energy for refresh commands per rank (pJ)
system.mem_ctrls_0.actBackEnergy           4897940460                       # Energy for active background per rank (pJ)
system.mem_ctrls_0.preBackEnergy            527885280                       # Energy for precharge background per rank (pJ)
system.mem_ctrls_0.actPowerDownEnergy     40118245590                       # Energy for active power-down per rank (pJ)
system.mem_ctrls_0.prePowerDownEnergy     20387091840                       # Energy for precharge power-down per rank (pJ)
system.mem_ctrls_0.selfRefreshEnergy       5655885360                       # Energy for self refresh per rank (pJ)
system.mem_ctrls_0.totalEnergy            84910595520                       # Total energy per rank (pJ)
system.mem_ctrls_0.averagePower            498.324964                       # Core power per rank (mW)
system.mem_ctrls_0.totalIdleTime         158265475000                       # Total Idle time Per DRAM Rank
system.mem_ctrls_0.memoryStateTime::IDLE    868229500                       # Time in different power states
system.mem_ctrls_0.memoryStateTime::REF    5090020000                       # Time in different power states
system.mem_ctrls_0.memoryStateTime::SREF  17196654500                       # Time in different power states
system.mem_ctrls_0.memoryStateTime::PRE_PDN  53091405500                       # Time in different power states
system.mem_ctrls_0.memoryStateTime::ACT    6167829250                       # Time in different power states
system.mem_ctrls_0.memoryStateTime::ACT_PDN  87977877750                       # Time in different power states
system.mem_ctrls_1.actEnergy                170239020                       # Energy for activate commands per rank (pJ)
system.mem_ctrls_1.preEnergy                 90480390                       # Energy for precharge commands per rank (pJ)
system.mem_ctrls_1.readEnergy              1569814680                       # Energy for read commands per rank (pJ)
system.mem_ctrls_1.writeEnergy                5574960                       # Energy for write commands per rank (pJ)
system.mem_ctrls_1.refreshEnergy         10147091760.000002                       # Energy for refresh commands per rank (pJ)
system.mem_ctrls_1.actBackEnergy           4624416840                       # Energy for active background per rank (pJ)
system.mem_ctrls_1.preBackEnergy            486525120                       # Energy for precharge background per rank (pJ)
system.mem_ctrls_1.actPowerDownEnergy     38774451780                       # Energy for active power-down per rank (pJ)
system.mem_ctrls_1.prePowerDownEnergy     12576034080                       # Energy for precharge power-down per rank (pJ)
system.mem_ctrls_1.selfRefreshEnergy      11211641940                       # Energy for self refresh per rank (pJ)
system.mem_ctrls_1.totalEnergy            79665253560                       # Total energy per rank (pJ)
system.mem_ctrls_1.averagePower            467.540999                       # Core power per rank (mW)
system.mem_ctrls_1.totalIdleTime         158963526500                       # Total Idle time Per DRAM Rank
system.mem_ctrls_1.memoryStateTime::IDLE    780031000                       # Time in different power states
system.mem_ctrls_1.memoryStateTime::REF    4292340000                       # Time in different power states
system.mem_ctrls_1.memoryStateTime::SREF  41181989250                       # Time in different power states
system.mem_ctrls_1.memoryStateTime::PRE_PDN  32750006250                       # Time in different power states
system.mem_ctrls_1.memoryStateTime::ACT    6356077250                       # Time in different power states
system.mem_ctrls_1.memoryStateTime::ACT_PDN  85031572750                       # Time in different power states
system.pwrStateResidencyTicks::UNDEFINED 170392016500                       # Cumulative time (in ticks) in various power states
system.cpu_voltage_domain.voltage                   1                       # Voltage in Volts
system.cpu_clk_domain.clock                       500                       # Clock period in ticks
system.cpu.dtb.fetch_hits                           0                       # ITB hits
system.cpu.dtb.fetch_misses                         0                       # ITB misses
system.cpu.dtb.fetch_acv                            0                       # ITB acv
system.cpu.dtb.fetch_accesses                       0                       # ITB accesses
system.cpu.dtb.read_hits                     21013238                       # DTB read hits
system.cpu.dtb.read_misses                          9                       # DTB read misses
system.cpu.dtb.read_acv                             0                       # DTB read access violations
system.cpu.dtb.read_accesses                 21013247                       # DTB read accesses
system.cpu.dtb.write_hits                     4928581                       # DTB write hits
system.cpu.dtb.write_misses                        11                       # DTB write misses
system.cpu.dtb.write_acv                            0                       # DTB write access violations
system.cpu.dtb.write_accesses                 4928592                       # DTB write accesses
system.cpu.dtb.data_hits                     25941819                       # DTB hits
system.cpu.dtb.data_misses                         20                       # DTB misses
system.cpu.dtb.data_acv                             0                       # DTB access violations
system.cpu.dtb.data_accesses                 25941839                       # DTB accesses
system.cpu.itb.fetch_hits                    61094680                       # ITB hits
system.cpu.itb.fetch_misses                        26                       # ITB misses
system.cpu.itb.fetch_acv                            0                       # ITB acv
system.cpu.itb.fetch_accesses                61094706                       # ITB accesses
system.cpu.itb.read_hits                            0                       # DTB read hits
system.cpu.itb.read_misses                          0                       # DTB read misses
system.cpu.itb.read_acv                             0                       # DTB read access violations
system.cpu.itb.read_accesses                        0                       # DTB read accesses
system.cpu.itb.write_hits                           0                       # DTB write hits
system.cpu.itb.write_misses                         0                       # DTB write misses
system.cpu.itb.write_acv                            0                       # DTB write access violations
system.cpu.itb.write_accesses                       0                       # DTB write accesses
system.cpu.itb.data_hits                            0                       # DTB hits
system.cpu.itb.data_misses                          0                       # DTB misses
system.cpu.itb.data_acv                             0                       # DTB access violations
system.cpu.itb.data_accesses                        0                       # DTB accesses
system.cpu.workload.numSyscalls                   239                       # Number of system calls
system.cpu.pwrStateResidencyTicks::ON    170392016500                       # Cumulative time (in ticks) in various power states
system.cpu.numCycles                        340784033                       # number of cpu cycles simulated
system.cpu.numWorkItemsStarted                      0                       # number of work items this cpu started
system.cpu.numWorkItemsCompleted                    0                       # number of work items this cpu completed
system.cpu.committedInsts                    61094659                       # Number of instructions committed
system.cpu.committedOps                      61094659                       # Number of ops (including micro ops) committed
system.cpu.num_int_alu_accesses              60434493                       # Number of integer alu accesses
system.cpu.num_fp_alu_accesses                  41255                       # Number of float alu accesses
system.cpu.num_vec_alu_accesses                     0                       # Number of vector alu accesses
system.cpu.num_func_calls                      266608                       # number of times a function call or return occured
system.cpu.num_conditional_control_insts      9542141                       # number of instructions that are conditional controls
system.cpu.num_int_insts                     60434493                       # number of integer instructions
system.cpu.num_fp_insts                         41255                       # number of float instructions
system.cpu.num_vec_insts                            0                       # number of vector instructions
system.cpu.num_int_register_reads            79505961                       # number of times the integer registers were read
system.cpu.num_int_register_writes           45947431                       # number of times the integer registers were written
system.cpu.num_fp_register_reads                41243                       # number of times the floating registers were read
system.cpu.num_fp_register_writes                  22                       # number of times the floating registers were written
system.cpu.num_vec_register_reads                   0                       # number of times the vector registers were read
system.cpu.num_vec_register_writes                  0                       # number of times the vector registers were written
system.cpu.num_mem_refs                      25941839                       # number of memory refs
system.cpu.num_load_insts                    21013247                       # Number of load instructions
system.cpu.num_store_insts                    4928592                       # Number of store instructions
system.cpu.num_idle_cycles                          0                       # Number of idle cycles
system.cpu.num_busy_cycles                  340784033                       # Number of busy cycles
system.cpu.not_idle_fraction                        1                       # Percentage of non-idle cycles
system.cpu.idle_fraction                            0                       # Percentage of idle cycles
system.cpu.Branches                          10046583                       # Number of branches fetched
system.cpu.op_class::No_OpClass                305112      0.50%      0.50% # Class of executed instruction
system.cpu.op_class::IntAlu                  34747394     56.87%     57.37% # Class of executed instruction
system.cpu.op_class::IntMult                    19467      0.03%     57.41% # Class of executed instruction
system.cpu.op_class::IntDiv                         0      0.00%     57.41% # Class of executed instruction
system.cpu.op_class::FloatAdd                      12      0.00%     57.41% # Class of executed instruction
system.cpu.op_class::FloatCmp                       0      0.00%     57.41% # Class of executed instruction
system.cpu.op_class::FloatCvt                       8      0.00%     57.41% # Class of executed instruction
system.cpu.op_class::FloatMult                      0      0.00%     57.41% # Class of executed instruction
system.cpu.op_class::FloatMultAcc                   0      0.00%     57.41% # Class of executed instruction
system.cpu.op_class::FloatDiv                       2      0.00%     57.41% # Class of executed instruction
system.cpu.op_class::FloatMisc                      0      0.00%     57.41% # Class of executed instruction
system.cpu.op_class::FloatSqrt                      0      0.00%     57.41% # Class of executed instruction
system.cpu.op_class::SimdAdd                        0      0.00%     57.41% # Class of executed instruction
system.cpu.op_class::SimdAddAcc                     0      0.00%     57.41% # Class of executed instruction
system.cpu.op_class::SimdAlu                        0      0.00%     57.41% # Class of executed instruction
system.cpu.op_class::SimdCmp                        0      0.00%     57.41% # Class of executed instruction
system.cpu.op_class::SimdCvt                        0      0.00%     57.41% # Class of executed instruction
system.cpu.op_class::SimdMisc                       0      0.00%     57.41% # Class of executed instruction
system.cpu.op_class::SimdMult                       0      0.00%     57.41% # Class of executed instruction
system.cpu.op_class::SimdMultAcc                    0      0.00%     57.41% # Class of executed instruction
system.cpu.op_class::SimdShift                      0      0.00%     57.41% # Class of executed instruction
system.cpu.op_class::SimdShiftAcc                   0      0.00%     57.41% # Class of executed instruction
system.cpu.op_class::SimdSqrt                       0      0.00%     57.41% # Class of executed instruction
system.cpu.op_class::SimdFloatAdd                   0      0.00%     57.41% # Class of executed instruction
system.cpu.op_class::SimdFloatAlu                   0      0.00%     57.41% # Class of executed instruction
system.cpu.op_class::SimdFloatCmp                   0      0.00%     57.41% # Class of executed instruction
system.cpu.op_class::SimdFloatCvt                   0      0.00%     57.41% # Class of executed instruction
system.cpu.op_class::SimdFloatDiv                   0      0.00%     57.41% # Class of executed instruction
system.cpu.op_class::SimdFloatMisc                  0      0.00%     57.41% # Class of executed instruction
system.cpu.op_class::SimdFloatMult                  0      0.00%     57.41% # Class of executed instruction
system.cpu.op_class::SimdFloatMultAcc               0      0.00%     57.41% # Class of executed instruction
system.cpu.op_class::SimdFloatSqrt                  0      0.00%     57.41% # Class of executed instruction
system.cpu.op_class::SimdAes                        0      0.00%     57.41% # Class of executed instruction
system.cpu.op_class::SimdAesMix                     0      0.00%     57.41% # Class of executed instruction
system.cpu.op_class::SimdSha1Hash                   0      0.00%     57.41% # Class of executed instruction
system.cpu.op_class::SimdSha1Hash2                  0      0.00%     57.41% # Class of executed instruction
system.cpu.op_class::SimdSha256Hash                 0      0.00%     57.41% # Class of executed instruction
system.cpu.op_class::SimdSha256Hash2                0      0.00%     57.41% # Class of executed instruction
system.cpu.op_class::SimdShaSigma2                  0      0.00%     57.41% # Class of executed instruction
system.cpu.op_class::SimdShaSigma3                  0      0.00%     57.41% # Class of executed instruction
system.cpu.op_class::MemRead                 21094085     34.53%     91.93% # Class of executed instruction
system.cpu.op_class::MemWrite                 4887366      8.00%     99.93% # Class of executed instruction
system.cpu.op_class::FloatMemRead                   6      0.00%     99.93% # Class of executed instruction
system.cpu.op_class::FloatMemWrite              41227      0.07%    100.00% # Class of executed instruction
system.cpu.op_class::IprAccess                      0      0.00%    100.00% # Class of executed instruction
system.cpu.op_class::InstPrefetch                   0      0.00%    100.00% # Class of executed instruction
system.cpu.op_class::total                   61094679                       # Class of executed instruction
system.cpu.dcache.tags.pwrStateResidencyTicks::UNDEFINED 170392016500                       # Cumulative time (in ticks) in various power states
system.cpu.dcache.tags.tagsinuse           255.777403                       # Cycle average of tags in use
system.cpu.dcache.tags.total_refs            25941819                       # Total number of references to valid blocks.
system.cpu.dcache.tags.sampled_refs           2361882                       # Sample count of references to valid blocks.
system.cpu.dcache.tags.avg_refs             10.983537                       # Average number of references to valid blocks.
system.cpu.dcache.tags.warmup_cycle            262500                       # Cycle when the warmup percentage was hit.
system.cpu.dcache.tags.occ_blocks::.cpu.data   255.777403                       # Average occupied blocks per requestor
system.cpu.dcache.tags.occ_percent::.cpu.data     0.999130                       # Average percentage of cache occupancy
system.cpu.dcache.tags.occ_percent::total     0.999130                       # Average percentage of cache occupancy
system.cpu.dcache.tags.occ_task_id_blocks::1024          256                       # Occupied blocks per task id
system.cpu.dcache.tags.age_task_id_blocks_1024::0           22                       # Occupied blocks per task id
system.cpu.dcache.tags.age_task_id_blocks_1024::1          142                       # Occupied blocks per task id
system.cpu.dcache.tags.age_task_id_blocks_1024::2           92                       # Occupied blocks per task id
system.cpu.dcache.tags.occ_task_id_percent::1024            1                       # Percentage of cache occupancy per task id
system.cpu.dcache.tags.tag_accesses          28303701                       # Number of tag accesses
system.cpu.dcache.tags.data_accesses         28303701                       # Number of data accesses
system.cpu.dcache.pwrStateResidencyTicks::UNDEFINED 170392016500                       # Cumulative time (in ticks) in various power states
system.cpu.dcache.ReadReq_hits::.cpu.data     18667673                       # number of ReadReq hits
system.cpu.dcache.ReadReq_hits::total        18667673                       # number of ReadReq hits
system.cpu.dcache.WriteReq_hits::.cpu.data      4760565                       # number of WriteReq hits
system.cpu.dcache.WriteReq_hits::total        4760565                       # number of WriteReq hits
system.cpu.dcache.LoadLockedReq_hits::.cpu.data        70855                       # number of LoadLockedReq hits
system.cpu.dcache.LoadLockedReq_hits::total        70855                       # number of LoadLockedReq hits
system.cpu.dcache.StoreCondReq_hits::.cpu.data        80844                       # number of StoreCondReq hits
system.cpu.dcache.StoreCondReq_hits::total        80844                       # number of StoreCondReq hits
system.cpu.dcache.demand_hits::.cpu.data     23428238                       # number of demand (read+write) hits
system.cpu.dcache.demand_hits::total         23428238                       # number of demand (read+write) hits
system.cpu.dcache.overall_hits::.cpu.data     23428238                       # number of overall hits
system.cpu.dcache.overall_hits::total        23428238                       # number of overall hits
system.cpu.dcache.ReadReq_misses::.cpu.data      2264721                       # number of ReadReq misses
system.cpu.dcache.ReadReq_misses::total       2264721                       # number of ReadReq misses
system.cpu.dcache.WriteReq_misses::.cpu.data        87172                       # number of WriteReq misses
system.cpu.dcache.WriteReq_misses::total        87172                       # number of WriteReq misses
system.cpu.dcache.LoadLockedReq_misses::.cpu.data         9989                       # number of LoadLockedReq misses
system.cpu.dcache.LoadLockedReq_misses::total         9989                       # number of LoadLockedReq misses
system.cpu.dcache.demand_misses::.cpu.data      2351893                       # number of demand (read+write) misses
system.cpu.dcache.demand_misses::total        2351893                       # number of demand (read+write) misses
system.cpu.dcache.overall_misses::.cpu.data      2351893                       # number of overall misses
system.cpu.dcache.overall_misses::total       2351893                       # number of overall misses
system.cpu.dcache.ReadReq_miss_latency::.cpu.data  54719121000                       # number of ReadReq miss cycles
system.cpu.dcache.ReadReq_miss_latency::total  54719121000                       # number of ReadReq miss cycles
system.cpu.dcache.WriteReq_miss_latency::.cpu.data   2354079000                       # number of WriteReq miss cycles
system.cpu.dcache.WriteReq_miss_latency::total   2354079000                       # number of WriteReq miss cycles
system.cpu.dcache.LoadLockedReq_miss_latency::.cpu.data    131417000                       # number of LoadLockedReq miss cycles
system.cpu.dcache.LoadLockedReq_miss_latency::total    131417000                       # number of LoadLockedReq miss cycles
system.cpu.dcache.demand_miss_latency::.cpu.data  57073200000                       # number of demand (read+write) miss cycles
system.cpu.dcache.demand_miss_latency::total  57073200000                       # number of demand (read+write) miss cycles
system.cpu.dcache.overall_miss_latency::.cpu.data  57073200000                       # number of overall miss cycles
system.cpu.dcache.overall_miss_latency::total  57073200000                       # number of overall miss cycles
system.cpu.dcache.ReadReq_accesses::.cpu.data     20932394                       # number of ReadReq accesses(hits+misses)
system.cpu.dcache.ReadReq_accesses::total     20932394                       # number of ReadReq accesses(hits+misses)
system.cpu.dcache.WriteReq_accesses::.cpu.data      4847737                       # number of WriteReq accesses(hits+misses)
system.cpu.dcache.WriteReq_accesses::total      4847737                       # number of WriteReq accesses(hits+misses)
system.cpu.dcache.LoadLockedReq_accesses::.cpu.data        80844                       # number of LoadLockedReq accesses(hits+misses)
system.cpu.dcache.LoadLockedReq_accesses::total        80844                       # number of LoadLockedReq accesses(hits+misses)
system.cpu.dcache.StoreCondReq_accesses::.cpu.data        80844                       # number of StoreCondReq accesses(hits+misses)
system.cpu.dcache.StoreCondReq_accesses::total        80844                       # number of StoreCondReq accesses(hits+misses)
system.cpu.dcache.demand_accesses::.cpu.data     25780131                       # number of demand (read+write) accesses
system.cpu.dcache.demand_accesses::total     25780131                       # number of demand (read+write) accesses
system.cpu.dcache.overall_accesses::.cpu.data     25780131                       # number of overall (read+write) accesses
system.cpu.dcache.overall_accesses::total     25780131                       # number of overall (read+write) accesses
system.cpu.dcache.ReadReq_miss_rate::.cpu.data     0.108192                       # miss rate for ReadReq accesses
system.cpu.dcache.ReadReq_miss_rate::total     0.108192                       # miss rate for ReadReq accesses
system.cpu.dcache.WriteReq_miss_rate::.cpu.data     0.017982                       # miss rate for WriteReq accesses
system.cpu.dcache.WriteReq_miss_rate::total     0.017982                       # miss rate for WriteReq accesses
system.cpu.dcache.LoadLockedReq_miss_rate::.cpu.data     0.123559                       # miss rate for LoadLockedReq accesses
system.cpu.dcache.LoadLockedReq_miss_rate::total     0.123559                       # miss rate for LoadLockedReq accesses
system.cpu.dcache.demand_miss_rate::.cpu.data     0.091229                       # miss rate for demand accesses
system.cpu.dcache.demand_miss_rate::total     0.091229                       # miss rate for demand accesses
system.cpu.dcache.overall_miss_rate::.cpu.data     0.091229                       # miss rate for overall accesses
system.cpu.dcache.overall_miss_rate::total     0.091229                       # miss rate for overall accesses
system.cpu.dcache.ReadReq_avg_miss_latency::.cpu.data 24161.528506                       # average ReadReq miss latency
system.cpu.dcache.ReadReq_avg_miss_latency::total 24161.528506                       # average ReadReq miss latency
system.cpu.dcache.WriteReq_avg_miss_latency::.cpu.data 27004.990134                       # average WriteReq miss latency
system.cpu.dcache.WriteReq_avg_miss_latency::total 27004.990134                       # average WriteReq miss latency
system.cpu.dcache.LoadLockedReq_avg_miss_latency::.cpu.data 13156.171789                       # average LoadLockedReq miss latency
system.cpu.dcache.LoadLockedReq_avg_miss_latency::total 13156.171789                       # average LoadLockedReq miss latency
system.cpu.dcache.demand_avg_miss_latency::.cpu.data 24266.920306                       # average overall miss latency
system.cpu.dcache.demand_avg_miss_latency::total 24266.920306                       # average overall miss latency
system.cpu.dcache.overall_avg_miss_latency::.cpu.data 24266.920306                       # average overall miss latency
system.cpu.dcache.overall_avg_miss_latency::total 24266.920306                       # average overall miss latency
system.cpu.dcache.blocked_cycles::no_mshrs            0                       # number of cycles access was blocked
system.cpu.dcache.blocked_cycles::no_targets            0                       # number of cycles access was blocked
system.cpu.dcache.blocked::no_mshrs                 0                       # number of cycles access was blocked
system.cpu.dcache.blocked::no_targets               0                       # number of cycles access was blocked
system.cpu.dcache.avg_blocked_cycles::no_mshrs          nan                       # average number of cycles each access was blocked
system.cpu.dcache.avg_blocked_cycles::no_targets          nan                       # average number of cycles each access was blocked
system.cpu.dcache.writebacks::.writebacks      1514642                       # number of writebacks
system.cpu.dcache.writebacks::total           1514642                       # number of writebacks
system.cpu.dcache.ReadReq_mshr_misses::.cpu.data      2264721                       # number of ReadReq MSHR misses
system.cpu.dcache.ReadReq_mshr_misses::total      2264721                       # number of ReadReq MSHR misses
system.cpu.dcache.WriteReq_mshr_misses::.cpu.data        87172                       # number of WriteReq MSHR misses
system.cpu.dcache.WriteReq_mshr_misses::total        87172                       # number of WriteReq MSHR misses
system.cpu.dcache.LoadLockedReq_mshr_misses::.cpu.data         9989                       # number of LoadLockedReq MSHR misses
system.cpu.dcache.LoadLockedReq_mshr_misses::total         9989                       # number of LoadLockedReq MSHR misses
system.cpu.dcache.demand_mshr_misses::.cpu.data      2351893                       # number of demand (read+write) MSHR misses
system.cpu.dcache.demand_mshr_misses::total      2351893                       # number of demand (read+write) MSHR misses
system.cpu.dcache.overall_mshr_misses::.cpu.data      2351893                       # number of overall MSHR misses
system.cpu.dcache.overall_mshr_misses::total      2351893                       # number of overall MSHR misses
system.cpu.dcache.ReadReq_mshr_miss_latency::.cpu.data  52454400000                       # number of ReadReq MSHR miss cycles
system.cpu.dcache.ReadReq_mshr_miss_latency::total  52454400000                       # number of ReadReq MSHR miss cycles
system.cpu.dcache.WriteReq_mshr_miss_latency::.cpu.data   2266907000                       # number of WriteReq MSHR miss cycles
system.cpu.dcache.WriteReq_mshr_miss_latency::total   2266907000                       # number of WriteReq MSHR miss cycles
system.cpu.dcache.LoadLockedReq_mshr_miss_latency::.cpu.data    121428000                       # number of LoadLockedReq MSHR miss cycles
system.cpu.dcache.LoadLockedReq_mshr_miss_latency::total    121428000                       # number of LoadLockedReq MSHR miss cycles
system.cpu.dcache.demand_mshr_miss_latency::.cpu.data  54721307000                       # number of demand (read+write) MSHR miss cycles
system.cpu.dcache.demand_mshr_miss_latency::total  54721307000                       # number of demand (read+write) MSHR miss cycles
system.cpu.dcache.overall_mshr_miss_latency::.cpu.data  54721307000                       # number of overall MSHR miss cycles
system.cpu.dcache.overall_mshr_miss_latency::total  54721307000                       # number of overall MSHR miss cycles
system.cpu.dcache.ReadReq_mshr_miss_rate::.cpu.data     0.108192                       # mshr miss rate for ReadReq accesses
system.cpu.dcache.ReadReq_mshr_miss_rate::total     0.108192                       # mshr miss rate for ReadReq accesses
system.cpu.dcache.WriteReq_mshr_miss_rate::.cpu.data     0.017982                       # mshr miss rate for WriteReq accesses
system.cpu.dcache.WriteReq_mshr_miss_rate::total     0.017982                       # mshr miss rate for WriteReq accesses
system.cpu.dcache.LoadLockedReq_mshr_miss_rate::.cpu.data     0.123559                       # mshr miss rate for LoadLockedReq accesses
system.cpu.dcache.LoadLockedReq_mshr_miss_rate::total     0.123559                       # mshr miss rate for LoadLockedReq accesses
system.cpu.dcache.demand_mshr_miss_rate::.cpu.data     0.091229                       # mshr miss rate for demand accesses
system.cpu.dcache.demand_mshr_miss_rate::total     0.091229                       # mshr miss rate for demand accesses
system.cpu.dcache.overall_mshr_miss_rate::.cpu.data     0.091229                       # mshr miss rate for overall accesses
system.cpu.dcache.overall_mshr_miss_rate::total     0.091229                       # mshr miss rate for overall accesses
system.cpu.dcache.ReadReq_avg_mshr_miss_latency::.cpu.data 23161.528506                       # average ReadReq mshr miss latency
system.cpu.dcache.ReadReq_avg_mshr_miss_latency::total 23161.528506                       # average ReadReq mshr miss latency
system.cpu.dcache.WriteReq_avg_mshr_miss_latency::.cpu.data 26004.990134                       # average WriteReq mshr miss latency
system.cpu.dcache.WriteReq_avg_mshr_miss_latency::total 26004.990134                       # average WriteReq mshr miss latency
system.cpu.dcache.LoadLockedReq_avg_mshr_miss_latency::.cpu.data 12156.171789                       # average LoadLockedReq mshr miss latency
system.cpu.dcache.LoadLockedReq_avg_mshr_miss_latency::total 12156.171789                       # average LoadLockedReq mshr miss latency
system.cpu.dcache.demand_avg_mshr_miss_latency::.cpu.data 23266.920306                       # average overall mshr miss latency
system.cpu.dcache.demand_avg_mshr_miss_latency::total 23266.920306                       # average overall mshr miss latency
system.cpu.dcache.overall_avg_mshr_miss_latency::.cpu.data 23266.920306                       # average overall mshr miss latency
system.cpu.dcache.overall_avg_mshr_miss_latency::total 23266.920306                       # average overall mshr miss latency
system.cpu.dcache.replacements                2361626                       # number of replacements
system.cpu.icache.tags.pwrStateResidencyTicks::UNDEFINED 170392016500                       # Cumulative time (in ticks) in various power states
system.cpu.icache.tags.tagsinuse           127.987696                       # Cycle average of tags in use
system.cpu.icache.tags.total_refs            61094680                       # Total number of references to valid blocks.
system.cpu.icache.tags.sampled_refs           2329735                       # Sample count of references to valid blocks.
system.cpu.icache.tags.avg_refs             26.223875                       # Average number of references to valid blocks.
system.cpu.icache.tags.warmup_cycle             87500                       # Cycle when the warmup percentage was hit.
system.cpu.icache.tags.occ_blocks::.cpu.inst   127.987696                       # Average occupied blocks per requestor
system.cpu.icache.tags.occ_percent::.cpu.inst     0.999904                       # Average percentage of cache occupancy
system.cpu.icache.tags.occ_percent::total     0.999904                       # Average percentage of cache occupancy
system.cpu.icache.tags.occ_task_id_blocks::1024          128                       # Occupied blocks per task id
system.cpu.icache.tags.age_task_id_blocks_1024::0           62                       # Occupied blocks per task id
system.cpu.icache.tags.age_task_id_blocks_1024::1           60                       # Occupied blocks per task id
system.cpu.icache.tags.age_task_id_blocks_1024::3            4                       # Occupied blocks per task id
system.cpu.icache.tags.age_task_id_blocks_1024::4            2                       # Occupied blocks per task id
system.cpu.icache.tags.occ_task_id_percent::1024            1                       # Percentage of cache occupancy per task id
system.cpu.icache.tags.tag_accesses          63424415                       # Number of tag accesses
system.cpu.icache.tags.data_accesses         63424415                       # Number of data accesses
system.cpu.icache.pwrStateResidencyTicks::UNDEFINED 170392016500                       # Cumulative time (in ticks) in various power states
system.cpu.icache.ReadReq_hits::.cpu.inst     58764945                       # number of ReadReq hits
system.cpu.icache.ReadReq_hits::total        58764945                       # number of ReadReq hits
system.cpu.icache.demand_hits::.cpu.inst     58764945                       # number of demand (read+write) hits
system.cpu.icache.demand_hits::total         58764945                       # number of demand (read+write) hits
system.cpu.icache.overall_hits::.cpu.inst     58764945                       # number of overall hits
system.cpu.icache.overall_hits::total        58764945                       # number of overall hits
system.cpu.icache.ReadReq_misses::.cpu.inst      2329735                       # number of ReadReq misses
system.cpu.icache.ReadReq_misses::total       2329735                       # number of ReadReq misses
system.cpu.icache.demand_misses::.cpu.inst      2329735                       # number of demand (read+write) misses
system.cpu.icache.demand_misses::total        2329735                       # number of demand (read+write) misses
system.cpu.icache.overall_misses::.cpu.inst      2329735                       # number of overall misses
system.cpu.icache.overall_misses::total       2329735                       # number of overall misses
system.cpu.icache.ReadReq_miss_latency::.cpu.inst  30842518500                       # number of ReadReq miss cycles
system.cpu.icache.ReadReq_miss_latency::total  30842518500                       # number of ReadReq miss cycles
system.cpu.icache.demand_miss_latency::.cpu.inst  30842518500                       # number of demand (read+write) miss cycles
system.cpu.icache.demand_miss_latency::total  30842518500                       # number of demand (read+write) miss cycles
system.cpu.icache.overall_miss_latency::.cpu.inst  30842518500                       # number of overall miss cycles
system.cpu.icache.overall_miss_latency::total  30842518500                       # number of overall miss cycles
system.cpu.icache.ReadReq_accesses::.cpu.inst     61094680                       # number of ReadReq accesses(hits+misses)
system.cpu.icache.ReadReq_accesses::total     61094680                       # number of ReadReq accesses(hits+misses)
system.cpu.icache.demand_accesses::.cpu.inst     61094680                       # number of demand (read+write) accesses
system.cpu.icache.demand_accesses::total     61094680                       # number of demand (read+write) accesses
system.cpu.icache.overall_accesses::.cpu.inst     61094680                       # number of overall (read+write) accesses
system.cpu.icache.overall_accesses::total     61094680                       # number of overall (read+write) accesses
system.cpu.icache.ReadReq_miss_rate::.cpu.inst     0.038133                       # miss rate for ReadReq accesses
system.cpu.icache.ReadReq_miss_rate::total     0.038133                       # miss rate for ReadReq accesses
system.cpu.icache.demand_miss_rate::.cpu.inst     0.038133                       # miss rate for demand accesses
system.cpu.icache.demand_miss_rate::total     0.038133                       # miss rate for demand accesses
system.cpu.icache.overall_miss_rate::.cpu.inst     0.038133                       # miss rate for overall accesses
system.cpu.icache.overall_miss_rate::total     0.038133                       # miss rate for overall accesses
system.cpu.icache.ReadReq_avg_miss_latency::.cpu.inst 13238.638085                       # average ReadReq miss latency
system.cpu.icache.ReadReq_avg_miss_latency::total 13238.638085                       # average ReadReq miss latency
system.cpu.icache.demand_avg_miss_latency::.cpu.inst 13238.638085                       # average overall miss latency
system.cpu.icache.demand_avg_miss_latency::total 13238.638085                       # average overall miss latency
system.cpu.icache.overall_avg_miss_latency::.cpu.inst 13238.638085                       # average overall miss latency
system.cpu.icache.overall_avg_miss_latency::total 13238.638085                       # average overall miss latency
system.cpu.icache.blocked_cycles::no_mshrs            0                       # number of cycles access was blocked
system.cpu.icache.blocked_cycles::no_targets            0                       # number of cycles access was blocked
system.cpu.icache.blocked::no_mshrs                 0                       # number of cycles access was blocked
system.cpu.icache.blocked::no_targets               0                       # number of cycles access was blocked
system.cpu.icache.avg_blocked_cycles::no_mshrs          nan                       # average number of cycles each access was blocked
system.cpu.icache.avg_blocked_cycles::no_targets          nan                       # average number of cycles each access was blocked
system.cpu.icache.writebacks::.writebacks      2329607                       # number of writebacks
system.cpu.icache.writebacks::total           2329607                       # number of writebacks
system.cpu.icache.ReadReq_mshr_misses::.cpu.inst      2329735                       # number of ReadReq MSHR misses
system.cpu.icache.ReadReq_mshr_misses::total      2329735                       # number of ReadReq MSHR misses
system.cpu.icache.demand_mshr_misses::.cpu.inst      2329735                       # number of demand (read+write) MSHR misses
system.cpu.icache.demand_mshr_misses::total      2329735                       # number of demand (read+write) MSHR misses
system.cpu.icache.overall_mshr_misses::.cpu.inst      2329735                       # number of overall MSHR misses
system.cpu.icache.overall_mshr_misses::total      2329735                       # number of overall MSHR misses
system.cpu.icache.ReadReq_mshr_miss_latency::.cpu.inst  28512783500                       # number of ReadReq MSHR miss cycles
system.cpu.icache.ReadReq_mshr_miss_latency::total  28512783500                       # number of ReadReq MSHR miss cycles
system.cpu.icache.demand_mshr_miss_latency::.cpu.inst  28512783500                       # number of demand (read+write) MSHR miss cycles
system.cpu.icache.demand_mshr_miss_latency::total  28512783500                       # number of demand (read+write) MSHR miss cycles
system.cpu.icache.overall_mshr_miss_latency::.cpu.inst  28512783500                       # number of overall MSHR miss cycles
system.cpu.icache.overall_mshr_miss_latency::total  28512783500                       # number of overall MSHR miss cycles
system.cpu.icache.ReadReq_mshr_miss_rate::.cpu.inst     0.038133                       # mshr miss rate for ReadReq accesses
system.cpu.icache.ReadReq_mshr_miss_rate::total     0.038133                       # mshr miss rate for ReadReq accesses
system.cpu.icache.demand_mshr_miss_rate::.cpu.inst     0.038133                       # mshr miss rate for demand accesses
system.cpu.icache.demand_mshr_miss_rate::total     0.038133                       # mshr miss rate for demand accesses
system.cpu.icache.overall_mshr_miss_rate::.cpu.inst     0.038133                       # mshr miss rate for overall accesses
system.cpu.icache.overall_mshr_miss_rate::total     0.038133                       # mshr miss rate for overall accesses
system.cpu.icache.ReadReq_avg_mshr_miss_latency::.cpu.inst 12238.638085                       # average ReadReq mshr miss latency
system.cpu.icache.ReadReq_avg_mshr_miss_latency::total 12238.638085                       # average ReadReq mshr miss latency
system.cpu.icache.demand_avg_mshr_miss_latency::.cpu.inst 12238.638085                       # average overall mshr miss latency
system.cpu.icache.demand_avg_mshr_miss_latency::total 12238.638085                       # average overall mshr miss latency
system.cpu.icache.overall_avg_mshr_miss_latency::.cpu.inst 12238.638085                       # average overall mshr miss latency
system.cpu.icache.overall_avg_mshr_miss_latency::total 12238.638085                       # average overall mshr miss latency
system.cpu.icache.replacements                2329607                       # number of replacements
system.l2.tags.pwrStateResidencyTicks::UNDEFINED 170392016500                       # Cumulative time (in ticks) in various power states
system.l2.tags.tagsinuse                  1023.717294                       # Cycle average of tags in use
system.l2.tags.total_refs                     9373757                       # Total number of references to valid blocks.
system.l2.tags.sampled_refs                    350628                       # Sample count of references to valid blocks.
system.l2.tags.avg_refs                     26.734194                       # Average number of references to valid blocks.
system.l2.tags.warmup_cycle                     77000                       # Cycle when the warmup percentage was hit.
system.l2.tags.occ_blocks::.writebacks      81.255144                       # Average occupied blocks per requestor
system.l2.tags.occ_blocks::.cpu.inst        85.529544                       # Average occupied blocks per requestor
system.l2.tags.occ_blocks::.cpu.data       856.932605                       # Average occupied blocks per requestor
system.l2.tags.occ_percent::.writebacks      0.079351                       # Average percentage of cache occupancy
system.l2.tags.occ_percent::.cpu.inst        0.083525                       # Average percentage of cache occupancy
system.l2.tags.occ_percent::.cpu.data        0.836848                       # Average percentage of cache occupancy
system.l2.tags.occ_percent::total            0.999724                       # Average percentage of cache occupancy
system.l2.tags.occ_task_id_blocks::1024          1024                       # Occupied blocks per task id
system.l2.tags.age_task_id_blocks_1024::0          117                       # Occupied blocks per task id
system.l2.tags.age_task_id_blocks_1024::1          616                       # Occupied blocks per task id
system.l2.tags.age_task_id_blocks_1024::2          204                       # Occupied blocks per task id
system.l2.tags.age_task_id_blocks_1024::3           45                       # Occupied blocks per task id
system.l2.tags.age_task_id_blocks_1024::4           42                       # Occupied blocks per task id
system.l2.tags.occ_task_id_percent::1024            1                       # Percentage of cache occupancy per task id
system.l2.tags.tag_accesses                 150476228                       # Number of tag accesses
system.l2.tags.data_accesses                150476228                       # Number of data accesses
system.l2.pwrStateResidencyTicks::UNDEFINED 170392016500                       # Cumulative time (in ticks) in various power states
system.l2.WritebackDirty_hits::.writebacks      1514642                       # number of WritebackDirty hits
system.l2.WritebackDirty_hits::total          1514642                       # number of WritebackDirty hits
system.l2.WritebackClean_hits::.writebacks      2329607                       # number of WritebackClean hits
system.l2.WritebackClean_hits::total          2329607                       # number of WritebackClean hits
system.l2.ReadExReq_hits::.cpu.data             78137                       # number of ReadExReq hits
system.l2.ReadExReq_hits::total                 78137                       # number of ReadExReq hits
system.l2.ReadCleanReq_hits::.cpu.inst        2321954                       # number of ReadCleanReq hits
system.l2.ReadCleanReq_hits::total            2321954                       # number of ReadCleanReq hits
system.l2.ReadSharedReq_hits::.cpu.data       1948901                       # number of ReadSharedReq hits
[...]
system.l2.ReadCleanReq_accesses::.cpu.inst      2329735                       # number of ReadCleanReq accesses(hits+misses)
system.l2.ReadCleanReq_accesses::total        2329735                       # number of ReadCleanReq accesses(hits+misses)
system.l2.ReadSharedReq_accesses::.cpu.data      2274710                       # number of ReadSharedReq accesses(hits+misses)
system.l2.ReadSharedReq_accesses::total       2274710                       # number of ReadSharedReq accesses(hits+misses)
system.l2.demand_accesses::.cpu.inst          2329735                       # number of demand (read+write) accesses
system.l2.demand_accesses::.cpu.data          2361882                       # number of demand (read+write) accesses
system.l2.demand_accesses::total              4691617                       # number of demand (read+write) accesses
system.l2.overall_accesses::.cpu.inst         2329735                       # number of overall (read+write) accesses
system.l2.overall_accesses::.cpu.data         2361882                       # number of overall (read+write) accesses
system.l2.overall_accesses::total             4691617                       # number of overall (read+write) accesses
system.l2.ReadExReq_miss_rate::.cpu.data     0.103646                       # miss rate for ReadExReq accesses
system.l2.ReadExReq_miss_rate::total         0.103646                       # miss rate for ReadExReq accesses
system.l2.ReadCleanReq_miss_rate::.cpu.inst     0.003340                       # miss rate for ReadCleanReq accesses
system.l2.ReadCleanReq_miss_rate::total      0.003340                       # miss rate for ReadCleanReq accesses
system.l2.ReadSharedReq_miss_rate::.cpu.data     0.143231                       # miss rate for ReadSharedReq accesses
system.l2.ReadSharedReq_miss_rate::total     0.143231                       # miss rate for ReadSharedReq accesses
system.l2.demand_miss_rate::.cpu.inst        0.003340                       # miss rate for demand accesses
system.l2.demand_miss_rate::.cpu.data        0.141770                       # miss rate for demand accesses
system.l2.demand_miss_rate::total            0.073029                       # miss rate for demand accesses
system.l2.overall_miss_rate::.cpu.inst       0.003340                       # miss rate for overall accesses
system.l2.overall_miss_rate::.cpu.data       0.141770                       # miss rate for overall accesses
system.l2.overall_miss_rate::total           0.073029                       # miss rate for overall accesses
system.l2.ReadExReq_avg_miss_latency::.cpu.data 145623.741007                       # average ReadExReq miss latency
system.l2.ReadExReq_avg_miss_latency::total 145623.741007                       # average ReadExReq miss latency
system.l2.ReadCleanReq_avg_miss_latency::.cpu.inst 81951.420126                       # average ReadCleanReq miss latency
system.l2.ReadCleanReq_avg_miss_latency::total 81951.420126                       # average ReadCleanReq miss latency
system.l2.ReadSharedReq_avg_miss_latency::.cpu.data 88089.348361                       # average ReadSharedReq miss latency
system.l2.ReadSharedReq_avg_miss_latency::total 88089.348361                       # average ReadSharedReq miss latency
system.l2.demand_avg_miss_latency::.cpu.inst 81951.420126                       # average overall miss latency
system.l2.demand_avg_miss_latency::.cpu.data 89641.782442                       # average overall miss latency
system.l2.demand_avg_miss_latency::total 89467.134622                       # average overall miss latency
system.l2.overall_avg_miss_latency::.cpu.inst 81951.420126                       # average overall miss latency
system.l2.overall_avg_miss_latency::.cpu.data 89641.782442                       # average overall miss latency
system.l2.overall_avg_miss_latency::total 89467.134622                       # average overall miss latency
system.l2.blocked_cycles::no_mshrs                  0                       # number of cycles access was blocked
system.l2.blocked_cycles::no_targets                0                       # number of cycles access was blocked
system.l2.blocked::no_mshrs                         0                       # number of cycles access was blocked
system.l2.blocked::no_targets                       0                       # number of cycles access was blocked
system.l2.avg_blocked_cycles::no_mshrs            nan                       # average number of cycles each access was blocked
system.l2.avg_blocked_cycles::no_targets          nan                       # average number of cycles each access was blocked
system.l2.writebacks::.writebacks               31263                       # number of writebacks
system.l2.writebacks::total                     31263                       # number of writebacks
system.l2.CleanEvict_mshr_misses::.writebacks         9093                       # number of CleanEvict MSHR misses
system.l2.CleanEvict_mshr_misses::total          9093                       # number of CleanEvict MSHR misses
system.l2.ReadExReq_mshr_misses::.cpu.data         9035                       # number of ReadExReq MSHR misses
system.l2.ReadExReq_mshr_misses::total           9035                       # number of ReadExReq MSHR misses
system.l2.ReadCleanReq_mshr_misses::.cpu.inst         7781                       # number of ReadCleanReq MSHR misses
system.l2.ReadCleanReq_mshr_misses::total         7781                       # number of ReadCleanReq MSHR misses
system.l2.ReadSharedReq_mshr_misses::.cpu.data       325809                       # number of ReadSharedReq MSHR misses
system.l2.ReadSharedReq_mshr_misses::total       325809                       # number of ReadSharedReq MSHR misses
system.l2.demand_mshr_misses::.cpu.inst          7781                       # number of demand (read+write) MSHR misses
system.l2.demand_mshr_misses::.cpu.data        334844                       # number of demand (read+write) MSHR misses
system.l2.demand_mshr_misses::total            342625                       # number of demand (read+write) MSHR misses
system.l2.overall_mshr_misses::.cpu.inst         7781                       # number of overall MSHR misses
system.l2.overall_mshr_misses::.cpu.data       334844                       # number of overall MSHR misses
system.l2.overall_mshr_misses::total           342625                       # number of overall MSHR misses
system.l2.ReadExReq_mshr_miss_latency::.cpu.data   1225360500                       # number of ReadExReq MSHR miss cycles
system.l2.ReadExReq_mshr_miss_latency::total   1225360500                       # number of ReadExReq MSHR miss cycles
system.l2.ReadCleanReq_mshr_miss_latency::.cpu.inst    559854000                       # number of ReadCleanReq MSHR miss cycles
system.l2.ReadCleanReq_mshr_miss_latency::total    559854000                       # number of ReadCleanReq MSHR miss cycles
system.l2.ReadSharedReq_mshr_miss_latency::.cpu.data  25442212500                       # number of ReadSharedReq MSHR miss cycles
system.l2.ReadSharedReq_mshr_miss_latency::total  25442212500                       # number of ReadSharedReq MSHR miss cycles
system.l2.demand_mshr_miss_latency::.cpu.inst    559854000                       # number of demand (read+write) MSHR miss cycles
system.l2.demand_mshr_miss_latency::.cpu.data  26667573000                       # number of demand (read+write) MSHR miss cycles
system.l2.demand_mshr_miss_latency::total  27227427000                       # number of demand (read+write) MSHR miss cycles
system.l2.overall_mshr_miss_latency::.cpu.inst    559854000                       # number of overall MSHR miss cycles
system.l2.overall_mshr_miss_latency::.cpu.data  26667573000                       # number of overall MSHR miss cycles
system.l2.overall_mshr_miss_latency::total  27227427000                       # number of overall MSHR miss cycles
system.l2.CleanEvict_mshr_miss_rate::.writebacks          inf                       # mshr miss rate for CleanEvict accesses
system.l2.CleanEvict_mshr_miss_rate::total          inf                       # mshr miss rate for CleanEvict accesses
system.l2.ReadExReq_mshr_miss_rate::.cpu.data     0.103646                       # mshr miss rate for ReadExReq accesses
system.l2.ReadExReq_mshr_miss_rate::total     0.103646                       # mshr miss rate for ReadExReq accesses
system.l2.ReadCleanReq_mshr_miss_rate::.cpu.inst     0.003340                       # mshr miss rate for ReadCleanReq accesses
system.l2.ReadCleanReq_mshr_miss_rate::total     0.003340                       # mshr miss rate for ReadCleanReq accesses
system.l2.ReadSharedReq_mshr_miss_rate::.cpu.data     0.143231                       # mshr miss rate for ReadSharedReq accesses
system.l2.ReadSharedReq_mshr_miss_rate::total     0.143231                       # mshr miss rate for ReadSharedReq accesses
system.l2.demand_mshr_miss_rate::.cpu.inst     0.003340                       # mshr miss rate for demand accesses
system.l2.demand_mshr_miss_rate::.cpu.data     0.141770                       # mshr miss rate for demand accesses
system.l2.demand_mshr_miss_rate::total       0.073029                       # mshr miss rate for demand accesses
system.l2.overall_mshr_miss_rate::.cpu.inst     0.003340                       # mshr miss rate for overall accesses
system.l2.overall_mshr_miss_rate::.cpu.data     0.141770                       # mshr miss rate for overall accesses
system.l2.overall_mshr_miss_rate::total      0.073029                       # mshr miss rate for overall accesses
system.l2.ReadExReq_avg_mshr_miss_latency::.cpu.data 135623.741007                       # average ReadExReq mshr miss latency
system.l2.ReadExReq_avg_mshr_miss_latency::total 135623.741007                       # average ReadExReq mshr miss latency
system.l2.ReadCleanReq_avg_mshr_miss_latency::.cpu.inst 71951.420126                       # average ReadCleanReq mshr miss latency
system.l2.ReadCleanReq_avg_mshr_miss_latency::total 71951.420126                       # average ReadCleanReq mshr miss latency
system.l2.ReadSharedReq_avg_mshr_miss_latency::.cpu.data 78089.348361                       # average ReadSharedReq mshr miss latency
system.l2.ReadSharedReq_avg_mshr_miss_latency::total 78089.348361                       # average ReadSharedReq mshr miss latency
system.l2.demand_avg_mshr_miss_latency::.cpu.inst 71951.420126                       # average overall mshr miss latency
system.l2.demand_avg_mshr_miss_latency::.cpu.data 79641.782442                       # average overall mshr miss latency
system.l2.demand_avg_mshr_miss_latency::total 79467.134622                       # average overall mshr miss latency
system.l2.overall_avg_mshr_miss_latency::.cpu.inst 71951.420126                       # average overall mshr miss latency
system.l2.overall_avg_mshr_miss_latency::.cpu.data 79641.782442                       # average overall mshr miss latency
system.l2.overall_avg_mshr_miss_latency::total 79467.134622                       # average overall mshr miss latency
system.l2.replacements                         349604                       # number of replacements
system.membus.snoop_filter.tot_requests        684136                       # Total number of requests made to the snoop filter.
system.membus.snoop_filter.hit_single_requests       341511                       # Number of requests hitting in the snoop filter with a single holder of the requested data.
system.membus.snoop_filter.hit_multi_requests            0                       # Number of requests hitting in the snoop filter with multiple (>1) holders of the requested data.
system.membus.snoop_filter.tot_snoops               0                       # Total number of snoops made to the snoop filter.
system.membus.snoop_filter.hit_single_snoops            0                       # Number of snoops hitting in the snoop filter with a single holder of the requested data.
system.membus.snoop_filter.hit_multi_snoops            0                       # Number of snoops hitting in the snoop filter with multiple (>1) holders of the requested data.
system.membus.pwrStateResidencyTicks::UNDEFINED 170392016500                       # Cumulative time (in ticks) in various power states
system.membus.trans_dist::ReadResp             333590                       # Transaction distribution
system.membus.trans_dist::WritebackDirty        31263                       # Transaction distribution
system.membus.trans_dist::CleanEvict           310248                       # Transaction distribution
system.membus.trans_dist::ReadExReq              9035                       # Transaction distribution
system.membus.trans_dist::ReadExResp             9035                       # Transaction distribution
system.membus.trans_dist::ReadSharedReq        333590                       # Transaction distribution
system.membus.pkt_count_system.l2.mem_side::system.mem_ctrls.port      1026761                       # Packet count per connected master and slave (bytes)
system.membus.pkt_count::total                1026761                       # Packet count per connected master and slave (bytes)
system.membus.pkt_size_system.l2.mem_side::system.mem_ctrls.port      5982208                       # Cumulative packet size per connected master and slave (bytes)
system.membus.pkt_size::total                 5982208                       # Cumulative packet size per connected master and slave (bytes)
system.membus.snoops                                0                       # Total snoops (count)
system.membus.snoopTraffic                          0                       # Total snoop traffic (bytes)
system.membus.snoop_fanout::samples            342625                       # Request fanout histogram
system.membus.snoop_fanout::mean                    0                       # Request fanout histogram
system.membus.snoop_fanout::stdev                   0                       # Request fanout histogram
system.membus.snoop_fanout::underflows              0      0.00%      0.00% # Request fanout histogram
system.membus.snoop_fanout::0                  342625    100.00%    100.00% # Request fanout histogram
system.membus.snoop_fanout::1                       0      0.00%    100.00% # Request fanout histogram
system.membus.snoop_fanout::overflows               0      0.00%    100.00% # Request fanout histogram
system.membus.snoop_fanout::min_value               0                       # Request fanout histogram
system.membus.snoop_fanout::max_value               0                       # Request fanout histogram
system.membus.snoop_fanout::total              342625                       # Request fanout histogram
system.membus.reqLayer0.occupancy           715399500                       # Layer occupancy (ticks)
system.membus.reqLayer0.utilization               0.4                       # Layer utilization (%)
system.membus.respLayer1.occupancy          779939750                       # Layer occupancy (ticks)
system.membus.respLayer1.utilization              0.5                       # Layer utilization (%)
system.tol2bus.snoop_filter.tot_requests      9382850                       # Total number of requests made to the snoop filter.
system.tol2bus.snoop_filter.hit_single_requests      4691233                       # Number of requests hitting in the snoop filter with a single holder of the requested data.
system.tol2bus.snoop_filter.hit_multi_requests            0                       # Number of requests hitting in the snoop filter with multiple (>1) holders of the requested data.
system.tol2bus.snoop_filter.tot_snoops          17186                       # Total number of snoops made to the snoop filter.
system.tol2bus.snoop_filter.hit_single_snoops        17186                       # Number of snoops hitting in the snoop filter with a single holder of the requested data.
system.tol2bus.snoop_filter.hit_multi_snoops            0                       # Number of snoops hitting in the snoop filter with multiple (>1) holders of the requested data.
system.tol2bus.pwrStateResidencyTicks::UNDEFINED 170392016500                       # Cumulative time (in ticks) in various power states
system.tol2bus.trans_dist::ReadResp           4604445                       # Transaction distribution
system.tol2bus.trans_dist::WritebackDirty      1545905                       # Transaction distribution
system.tol2bus.trans_dist::WritebackClean      2329607                       # Transaction distribution
system.tol2bus.trans_dist::CleanEvict         1165325                       # Transaction distribution
system.tol2bus.trans_dist::ReadExReq            87172                       # Transaction distribution
system.tol2bus.trans_dist::ReadExResp           87172                       # Transaction distribution
system.tol2bus.trans_dist::ReadCleanReq       2329735                       # Transaction distribution
system.tol2bus.trans_dist::ReadSharedReq      2274710                       # Transaction distribution
system.tol2bus.pkt_count_system.cpu.icache.mem_side::system.l2.cpu_side      6989077                       # Packet count per connected master and slave (bytes)
system.tol2bus.pkt_count_system.cpu.dcache.mem_side::system.l2.cpu_side      7085390                       # Packet count per connected master and slave (bytes)
system.tol2bus.pkt_count::total              14074467                       # Packet count per connected master and slave (bytes)
system.tol2bus.pkt_size_system.cpu.icache.mem_side::system.l2.cpu_side     74549472                       # Cumulative packet size per connected master and slave (bytes)
system.tol2bus.pkt_size_system.cpu.dcache.mem_side::system.l2.cpu_side     62024384                       # Cumulative packet size per connected master and slave (bytes)
system.tol2bus.pkt_size::total              136573856                       # Cumulative packet size per connected master and slave (bytes)
system.tol2bus.snoops                          349604                       # Total snoops (count)
system.tol2bus.snoopTraffic                    500208                       # Total snoop traffic (bytes)
system.tol2bus.snoop_fanout::samples          5041221                       # Request fanout histogram
system.tol2bus.snoop_fanout::mean            0.003409                       # Request fanout histogram
system.tol2bus.snoop_fanout::stdev           0.058288                       # Request fanout histogram
system.tol2bus.snoop_fanout::underflows             0      0.00%      0.00% # Request fanout histogram
system.tol2bus.snoop_fanout::0                5024035     99.66%     99.66% # Request fanout histogram
system.tol2bus.snoop_fanout::1                  17186      0.34%    100.00% # Request fanout histogram
system.tol2bus.snoop_fanout::2                      0      0.00%    100.00% # Request fanout histogram
system.tol2bus.snoop_fanout::overflows              0      0.00%    100.00% # Request fanout histogram
system.tol2bus.snoop_fanout::min_value              0                       # Request fanout histogram
system.tol2bus.snoop_fanout::max_value              1                       # Request fanout histogram
system.tol2bus.snoop_fanout::total            5041221                       # Request fanout histogram
system.tol2bus.reqLayer0.occupancy         6613549500                       # Layer occupancy (ticks)
system.tol2bus.reqLayer0.utilization              3.9                       # Layer utilization (%)
system.tol2bus.respLayer0.occupancy        2329735000                       # Layer occupancy (ticks)
system.tol2bus.respLayer0.utilization             1.4                       # Layer utilization (%)
system.tol2bus.respLayer1.occupancy        2361882000                       # Layer occupancy (ticks)
system.tol2bus.respLayer1.utilization             1.4                       # Layer utilization (%)

---------- End Simulation Statistics   ----------
